@<TRIPOS>MOLECULE
d_furanose
 2360 2360 120 0 1
SMALL
USER_CHARGES
@<TRIPOS>ATOM
     1   C1   -1.468    1.292   -0.712   Cg     1      0AD   0.368000
     2   H1   -1.064    2.192   -1.174   H2     1      0AD   0.000000
     3   C2   -0.914   -0.060   -1.439   Cg     1      0AD   0.278000
     4   H2   -1.755   -0.652   -1.806   H1     1      0AD   0.000000
     5   C3   -0.088   -0.918   -0.316   Cg     1      0AD   0.370000
     6   H3    0.965   -0.973   -0.596   H1     1      0AD   0.000000
     7   C4   -0.251   -0.162    1.104   Cg     1      0AD   0.147000
     8   H4   -0.890   -0.747    1.767   H1     1      0AD   0.000000
     9   C5    1.086    0.102    1.802   Cg     1      0AD   0.338000
    10  H52    1.631   -0.832    1.940   H1     1      0AD   0.000000
    11  H51    0.917    0.550    2.781   H1     1      0AD   0.000000
    12   O5    1.871    1.001    1.000   Oh     1      0AD  -0.696000
    13  H5O    1.455    1.870    1.038   Ho     1      0AD   0.399000
    14   O4   -0.997    1.197    0.773   Os     1      0AD  -0.453000
    15   O3   -0.604   -2.264   -0.212   Oh     1      0AD  -0.703000
    16  H3O   -0.492   -2.711   -1.057   Ho     1      0AD   0.404000
    17   O2   -0.051    0.254   -2.573   Oh     1      0AD  -0.688000
    18  H2O    0.648    0.864   -2.319   Ho     1      0AD   0.430000
    19   C1    0.296    0.124    1.992   Cg     2      0AU   0.477000
    20   H1    1.077    0.395    2.703   H2     2      0AU   0.000000
    21   O4    0.023    1.286    0.991   Os     2      0AU  -0.532000
    22   C4    0.081    0.834   -0.535   Cg     2      0AU   0.327000
    23   H4    0.907    1.358   -1.017   H1     2      0AU   0.000000
    24   C5   -1.238    1.187   -1.237   Cg     2      0AU   0.227000
    25  H52   -2.072    0.697   -0.734   H1     2      0AU   0.000000
    26  H51   -1.216    0.850   -2.274   H1     2      0AU   0.000000
    27   O5   -1.445    2.612   -1.207   Oh     2      0AU  -0.650000
    28  H5O   -1.307    2.932   -0.310   Ho     2      0AU   0.397000
    29   C3    0.385   -0.760   -0.488   Cg     2      0AU   0.215000
    30   H3   -0.497   -1.308   -0.823   H1     2      0AU   0.000000
    31   O3    1.497   -1.097   -1.353   Oh     2      0AU  -0.728000
    32  H3O    1.607   -2.055   -1.379   Ho     2      0AU   0.437000
    33   C2    0.719   -1.156    1.064   Cg     2      0AU   0.328000
    34   H2    1.795   -1.298    1.169   H1     2      0AU   0.000000
    35   O2    0.062   -2.404    1.423   Oh     2      0AU  -0.721000
    36  H2O   -0.674   -2.197    2.015   Ho     2      0AU   0.417000
    37   C2    0.576    0.529    1.425   Cg     3      0BD   0.241000
    38   C1   -0.275    0.108    2.644   Cg     3      0BD   0.313000
    39  H12    0.354   -0.357    3.403   H1     3      0BD   0.000000
    40  H11   -0.748    0.985    3.087   H1     3      0BD   0.000000
    41   O1   -1.302   -0.829    2.256   Oh     3      0BD  -0.668000
    42  H1O   -1.961   -0.879    2.954   Ho     3      0BD   0.414000
    43   C3    1.150   -0.715    0.521   Cg     3      0BD   0.440000
    44   H3    0.500   -1.577    0.668   H1     3      0BD   0.000000
    45   C4    1.018   -0.257   -1.044   Cg     3      0BD   0.225000
    46   H4    1.987    0.114   -1.381   H1     3      0BD   0.000000
    47   C5   -0.026    0.988   -1.100   Cg     3      0BD   0.271000
    48   H5    0.449    1.818   -1.624   H1     3      0BD   0.000000
    49   C6   -1.388    0.680   -1.758   Cg     3      0BD   0.281000
    50  H62   -1.950   -0.021   -1.139   H1     3      0BD   0.000000
    51  H61   -1.239    0.226   -2.738   H1     3      0BD   0.000000
    52   O6   -2.159    1.887   -1.933   Oh     3      0BD  -0.679000
    53  H6O   -1.758    2.441   -2.605   Ho     3      0BD   0.411000
    54   O5   -0.251    1.395    0.417   Os     3      0BD  -0.452000
    55   O4    0.634   -1.366   -1.908   Oh     3      0BD  -0.710000
    56  H4O    1.388   -1.956   -2.031   Ho     3      0BD   0.435000
    57   O3    2.506   -1.143    0.818   Oh     3      0BD  -0.732000
    58  H3O    2.495   -2.069    1.068   Ho     3      0BD   0.404000
    59   C2   -1.169   -0.236    0.794   Cg     4      0BU   0.247000
    60   O5   -0.705    1.072    0.064   Os     4      0BU  -0.385000
    61   C5    0.569    0.873   -0.851   Cg     4      0BU   0.210000
    62   H5    1.356    1.548   -0.511   H1     4      0BU   0.000000
    63   C6    0.222    1.201   -2.316   Cg     4      0BU   0.332000
    64  H62   -0.591    0.563   -2.664   H1     4      0BU   0.000000
    65  H61    1.090    1.026   -2.951   H1     4      0BU   0.000000
    66   O6   -0.170    2.582   -2.450   Oh     4      0BU  -0.701000
    67  H6O    0.499    3.154   -2.070   Ho     4      0BU   0.409000
    68   C4    1.037   -0.659   -0.583   Cg     4      0BU   0.283000
    69   H4    1.933   -0.626    0.038   H1     4      0BU   0.000000
    70   O4    1.363   -1.368   -1.809   Oh     4      0BU  -0.755000
    71  H4O    1.759   -2.219   -1.591   Ho     4      0BU   0.434000
    72   C3   -0.159   -1.403    0.251   Cg     4      0BU   0.382000
    73   H3   -0.702   -2.050   -0.438   H1     4      0BU   0.000000
    74   O3    0.389   -2.239    1.308   Oh     4      0BU  -0.742000
    75  H3O   -0.281   -2.879    1.570   Ho     4      0BU   0.426000
    76   C1   -1.120   -0.012    2.330   Cg     4      0BU   0.299000
    77  H12   -1.451   -0.909    2.855   H1     4      0BU   0.000000
    78  H11   -0.095    0.201    2.635   H1     4      0BU   0.000000
    79   O1   -1.957    1.097    2.728   Oh     4      0BU  -0.627000
    80  H1O   -1.817    1.283    3.660   Ho     4      0BU   0.382000
    81   C2    0.630    0.413    1.428   Cg     5      0CD   0.284000
    82   C1   -0.205    0.119    2.708   Cg     5      0CD   0.370000
    83  H12    0.387   -0.478    3.403   H1     5      0CD   0.000000
    84  H11   -0.472    1.052    3.206   H1     5      0CD   0.000000
    85   O1   -1.411   -0.604    2.393   Oh     5      0CD  -0.688000
    86  H1O   -1.144   -1.348    1.830   Ho     5      0CD   0.414000
    87   C3    1.091   -0.869    0.518   Cg     5      0CD   0.282000
    88   H3    2.127   -1.141    0.723   H1     5      0CD   0.000000
    89   C4    0.891   -0.426   -1.046   Cg     5      0CD   0.332000
    90   H4    0.424   -1.224   -1.624   H1     5      0CD   0.000000
    91   C5   -0.009    0.922   -1.073   Cg     5      0CD   0.309000
    92   H5    0.491    1.705   -1.647   H1     5      0CD   0.000000
    93   C6   -1.406    0.655   -1.659   Cg     5      0CD   0.265000
    94  H62   -1.986    0.037   -0.971   H1     5      0CD   0.000000
    95  H61   -1.317    0.117   -2.603   H1     5      0CD   0.000000
    96   O6   -2.115    1.887   -1.903   Oh     5      0CD  -0.664000
    97  H6O   -1.698    2.386   -2.609   Ho     5      0CD   0.412000
    98   O5   -0.120    1.370    0.442   Os     5      0CD  -0.498000
    99   O4    2.194   -0.151   -1.627   Oh     5      0CD  -0.784000
   100  H4O    2.697    0.445   -1.059   Ho     5      0CD   0.444000
   101   O3    0.260   -2.043    0.769   Oh     5      0CD  -0.716000
   102  H3O    0.689   -2.824    0.400   Ho     5      0CD   0.432000
   103   C2   -1.268    0.220    0.736   Cg     6      0CU   0.239000
   104   O5   -0.802    0.602   -0.719   Os     6      0CU  -0.449000
   105   C5    0.606   -0.005   -1.088   Cg     6      0CU   0.310000
   106   H5    1.295    0.804   -1.340   H1     6      0CU   0.000000
   107   C6    0.433   -0.931   -2.292   Cg     6      0CU   0.272000
   108  H62   -0.313   -1.699   -2.083   H1     6      0CU   0.000000
   109  H61    1.377   -1.419   -2.533   H1     6      0CU   0.000000
   110   O6    0.009   -0.147   -3.415   Oh     6      0CU  -0.652000
   111  H6O    0.667    0.526   -3.602   Ho     6      0CU   0.397000
   112   C4    1.099   -0.793    0.242   Cg     6      0CU   0.293000
   113   H4    1.487   -1.788    0.011   H1     6      0CU   0.000000
   114   O4    2.142   -0.017    0.848   Oh     6      0CU  -0.763000
   115  H4O    2.886    0.046    0.245   Ho     6      0CU   0.431000
   116   C3   -0.140   -0.827    1.290   Cg     6      0CU   0.333000
   117   H3    0.171   -0.589    2.308   H1     6      0CU   0.000000
   118   O3   -0.623   -2.182    1.256   Oh     6      0CU  -0.691000
   119  H3O   -1.392   -2.262    1.825   Ho     6      0CU   0.410000
   120   C1   -1.314    1.499    1.586   Cg     6      0CU   0.287000
   121  H12   -1.703    1.285    2.582   H1     6      0CU   0.000000
   122  H11   -0.308    1.909    1.696   H1     6      0CU   0.000000
   123   O1   -2.144    2.488    0.954   Oh     6      0CU  -0.624000
   124  H1O   -2.164    3.281    1.494   Ho     6      0CU   0.401000
   125   C1   -1.664    0.981   -0.477   Cg     7      0DD   0.380000
   126   H1   -1.434    1.918   -0.984   H1     7      0DD   0.000000
   127   C2   -1.122   -0.312   -1.309   Cg     7      0DD   0.229000
   128   H2   -1.901   -1.075   -1.327   H1     7      0DD   0.000000
   129   C3    0.145   -0.928   -0.466   Cg     7      0DD   0.298000
   130   H3    0.102   -2.016   -0.435   H1     7      0DD   0.000000
   131   C4    0.074   -0.289    1.025   Cg     7      0DD   0.189000
   132   H4   -0.393   -1.032    1.674   H1     7      0DD   0.000000
   133   C5    1.397    0.161    1.664   Cg     7      0DD   0.305000
   134  H52    2.098   -0.672    1.713   H1     7      0DD   0.000000
   135  H51    1.850    0.965    1.083   H1     7      0DD   0.000000
   136   O5    1.134    0.635    2.996   Oh     7      0DD  -0.697000
   137  H5O    0.479    1.337    2.941   Ho     7      0DD   0.414000
   138   O4   -0.928    0.937    0.899   Os     7      0DD  -0.423000
   139   O3    1.376   -0.518   -1.104   Oh     7      0DD  -0.678000
   140  H3O    1.159   -0.337   -2.030   Ho     7      0DD   0.417000
   141   O2   -0.783    0.009   -2.692   Oh     7      0DD  -0.651000
   142  H2O   -1.588    0.238   -3.171   Ho     7      0DD   0.411000
   143   C1   -1.582   -0.386    1.299   Cg     8      0DU   0.436000
   144   H1   -1.717   -0.252    2.373   H2     8      0DU   0.000000
   145   O4   -1.184    0.971    0.656   Os     8      0DU  -0.517000
   146   C4    0.288    0.983    0.059   Cg     8      0DU   0.135000
   147   H4    0.863    1.764    0.559   H1     8      0DU   0.000000
   148   C5    0.254    1.276   -1.455   Cg     8      0DU   0.373000
   149  H52   -0.324    0.513   -1.978   H1     8      0DU   0.000000
   150  H51    1.268    1.275   -1.856   H1     8      0DU   0.000000
   151   O5   -0.336    2.565   -1.702   Oh     8      0DU  -0.725000
   152  H5O   -0.079    3.171   -1.004   Ho     8      0DU   0.418000
   153   C3    0.904   -0.461    0.456   Cg     8      0DU   0.300000
   154   H3    1.600   -0.310    1.283   H1     8      0DU   0.000000
   155   O3    1.627   -1.084   -0.631   Oh     8      0DU  -0.642000
   156  H3O    1.111   -1.864   -0.887   Ho     8      0DU   0.405000
   157   C2   -0.329   -1.400    1.000   Cg     8      0DU   0.284000
   158   H2   -0.041   -1.928    1.908   H1     8      0DU   0.000000
   159   O2   -0.678   -2.383   -0.028   Oh     8      0DU  -0.680000
   160  H2O   -1.644   -2.448   -0.052   Ho     8      0DU   0.407000
   161   C2    0.659    0.577    1.508   Cg     9      0JD   0.192000
   162   C1   -0.189    0.306    2.782   Cg     9      0JD   0.389000
   163  H12    0.393   -0.279    3.495   H1     9      0JD   0.000000
   164  H11   -0.464    1.248    3.259   H1     9      0JD   0.000000
   165   O1   -1.390   -0.418    2.462   Oh     9      0JD  -0.654000
   166  H1O   -1.110   -1.177    1.928   Ho     9      0JD   0.380000
   167   C3    1.192   -0.724    0.669   Cg     9      0JD   0.393000
   168   H3    2.206   -1.011    0.949   H1     9      0JD   0.000000
   169   C4    1.114   -0.302   -0.916   Cg     9      0JD   0.233000
   170   H4    2.099    0.064   -1.204   H1     9      0JD   0.000000
   171   C5    0.085    0.950   -1.035   Cg     9      0JD   0.190000
   172   H5    0.559    1.744   -1.614   H1     9      0JD   0.000000
   173   C6   -1.285    0.608   -1.653   Cg     9      0JD   0.340000
   174  H62   -1.842   -0.057   -0.992   H1     9      0JD   0.000000
   175  H61   -1.151    0.106   -2.611   H1     9      0JD   0.000000
   176   O6   -2.051    1.808   -1.879   Oh     9      0JD  -0.725000
   177  H6O   -1.572    2.404   -2.457   Ho     9      0JD   0.425000
   178   O5   -0.118    1.443    0.458   Os     9      0JD  -0.410000
   179   O4    0.783   -1.418   -1.794   Oh     9      0JD  -0.671000
   180  H4O    1.577   -1.734   -2.243   Ho     9      0JD   0.414000
   181   O3    0.303   -1.857    0.875   Oh     9      0JD  -0.748000
   182  H3O    0.199   -2.282    0.011   Ho     9      0JD   0.446000
   183   C2   -1.066   -0.268    0.807   Cg    10      0JU   0.351000
   184   O5   -0.584    1.052    0.111   Os    10      0JU  -0.389000
   185   C5    0.774    0.882   -0.688   Cg    10      0JU   0.100000
   186   H5    1.507    1.590   -0.303   H1    10      0JU   0.000000
   187   C6    0.507    1.176   -2.173   Cg    10      0JU   0.349000
   188  H62   -0.299    0.545   -2.544   H1    10      0JU   0.000000
   189  H61    1.399    0.998   -2.774   H1    10      0JU   0.000000
   190   O6    0.125    2.555   -2.291   Oh    10      0JU  -0.684000
   191  H6O   -0.503    2.743   -1.588   Ho    10      0JU   0.411000
   192   C4    1.265   -0.625   -0.359   Cg    10      0JU   0.284000
   193   H4    2.072   -0.556    0.372   H1    10      0JU   0.000000
   194   O4    1.764   -1.322   -1.518   Oh    10      0JU  -0.657000
   195  H4O    1.135   -2.038   -1.691   Ho    10      0JU   0.410000
   196   C3    0.015   -1.417    0.346   Cg    10      0JU   0.223000
   197   H3    0.363   -2.002    1.197   H1    10      0JU   0.000000
   198   O3   -0.590   -2.322   -0.627   Oh    10      0JU  -0.671000
   199  H3O   -1.544   -2.140   -0.624   Ho    10      0JU   0.416000
   200   C1   -1.069   -0.088    2.350   Cg    10      0JU   0.333000
   201  H12   -1.378   -1.015    2.835   H1    10      0JU   0.000000
   202  H11   -0.062    0.151    2.692   H1    10      0JU   0.000000
   203   O1   -1.962    0.975    2.762   Oh    10      0JU  -0.697000
   204  H1O   -1.870    1.127    3.706   Ho    10      0JU   0.415000
   205   C2    0.409    1.401    0.491   Cg    11      0PD   0.324000
   206   C1   -0.488    2.092    1.525   Cg    11      0PD   0.286000
   207  H12    0.067    2.281    2.445   H1    11      0PD   0.000000
   208  H11   -0.852    3.046    1.139   H1    11      0PD   0.000000
   209   O1   -1.612    1.252    1.819   Oh    11      0PD  -0.691000
   210  H1O   -2.168    1.678    2.474   Ho    11      0PD   0.419000
   211   C3    1.064   -0.026    0.935   Cg    11      0PD   0.334000
   212   H3    0.417   -0.466    1.694   H1    11      0PD   0.000000
   213   C4    0.994   -1.010   -0.362   Cg    11      0PD   0.282000
   214   H4    0.759   -2.037   -0.080   H1    11      0PD   0.000000
   215   C5   -0.101   -0.371   -1.380   Cg    11      0PD   0.194000
   216   H5    0.308   -0.278   -2.389   H1    11      0PD   0.000000
   217   C6   -1.403   -1.171   -1.428   Cg    11      0PD   0.291000
   218  H62   -1.875   -1.198   -0.445   H1    11      0PD   0.000000
   219  H61   -1.207   -2.193   -1.750   H1    11      0PD   0.000000
   220   O6   -2.289   -0.546   -2.366   Oh    11      0PD  -0.695000
   221  H6O   -1.873   -0.522   -3.231   Ho    11      0PD   0.411000
   222   O5   -0.417    1.069   -0.812   Os    11      0PD  -0.453000
   223   O4    2.249   -0.975   -1.061   Oh    11      0PD  -0.683000
   224  H4O    2.943   -1.311   -0.489   Ho    11      0PD   0.421000
   225   O3    2.381    0.079    1.510   Oh    11      0PD  -0.661000
   226  H3O    2.692   -0.793    1.761   Ho    11      0PD   0.415000
   227   C2   -1.290    0.307    0.629   Cg    12      0PU   0.288000
   228   O5   -0.691    0.662   -0.784   Os    12      0PU  -0.480000
   229   C5    0.611   -0.159   -1.122   Cg    12      0PU   0.369000
   230   H5    1.402    0.528   -1.430   H1    12      0PU   0.000000
   231   C6    0.293   -1.116   -2.272   Cg    12      0PU   0.215000
   232  H62   -0.547   -1.762   -2.015   H1    12      0PU   0.000000
   233  H61    1.158   -1.741   -2.494   H1    12      0PU   0.000000
   234   O6   -0.038   -0.343   -3.433   Oh    12      0PU  -0.678000
   235  H6O    0.697    0.233   -3.655   Ho    12      0PU   0.421000
   236   C4    1.003   -0.934    0.249   Cg    12      0PU   0.192000
   237   H4    1.242   -1.984    0.073   H1    12      0PU   0.000000
   238   O4    2.166   -0.264    0.767   Oh    12      0PU  -0.711000
   239  H4O    2.895   -0.369    0.152   Ho    12      0PU   0.438000
   240   C3   -0.258   -0.781    1.271   Cg    12      0PU   0.334000
   241   H3   -0.745   -1.756    1.328   H1    12      0PU   0.000000
   242   O3    0.146   -0.427    2.609   Oh    12      0PU  -0.714000
   243  H3O    0.776   -1.074    2.935   Ho    12      0PU   0.424000
   244   C1   -1.508    1.615    1.414   Cg    12      0PU   0.365000
   245  H12   -2.003    1.416    2.365   H1    12      0PU   0.000000
   246  H11   -0.549    2.088    1.622   H1    12      0PU   0.000000
   247   O1   -2.312    2.526    0.645   Oh    12      0PU  -0.687000
   248  H1O   -2.449    3.334    1.146   Ho    12      0PU   0.418000
   249   C1    0.243    0.373    2.053   Cg    13      0RD   0.445000
   250   H1   -0.367    0.084    2.908   H2    13      0RD   0.000000
   251   C2    0.770   -0.914    1.185   Cg    13      0RD   0.318000
   252   H2    0.038   -1.706    1.338   H1    13      0RD   0.000000
   253   C3    0.675   -0.486   -0.396   Cg    13      0RD   0.275000
   254   H3    0.319   -1.319   -1.002   H1    13      0RD   0.000000
   255   C4   -0.322    0.796   -0.485   Cg    13      0RD   0.327000
   256   H4    0.159    1.623   -1.011   H1    13      0RD   0.000000
   257   C5   -1.649    0.443   -1.183   Cg    13      0RD   0.195000
   258  H52   -2.184   -0.308   -0.602   H1    13      0RD   0.000000
   259  H51   -1.447    0.028   -2.170   H1    13      0RD   0.000000
   260   O5   -2.490    1.604   -1.335   Oh    13      0RD  -0.667000
   261  H5O   -2.077    2.253   -1.911   Ho    13      0RD   0.408000
   262   O4   -0.576    1.219    1.027   Os    13      0RD  -0.513000
   263   O3    1.981   -0.077   -0.881   Oh    13      0RD  -0.739000
   264  H3O    2.565    0.062   -0.120   Ho    13      0RD   0.438000
   265   O2    2.072   -1.458    1.566   Oh    13      0RD  -0.709000
   266  H2O    2.289   -2.219    1.019   Ho    13      0RD   0.416000
   267   C1    0.001   -0.010    2.067   Cg    14      0RU   0.378000
   268   H1    0.744    0.240    2.826   H1    14      0RU   0.000000
   269   O4   -0.201    1.180    1.084   Os    14      0RU  -0.424000
   270   C4   -0.054    0.763   -0.440   Cg    14      0RU   0.102000
   271   H4    0.841    1.243   -0.839   H1    14      0RU   0.000000
   272   C5   -1.278    1.183   -1.265   Cg    14      0RU   0.338000
   273  H52   -1.212    0.763   -2.269   H1    14      0RU   0.000000
   274  H51   -2.193    0.818   -0.799   H1    14      0RU   0.000000
   275   O5   -1.333    2.614   -1.365   Oh    14      0RU  -0.692000
   276  H5O   -2.087    2.870   -1.899   Ho    14      0RU   0.415000
   277   C3    0.156   -0.839   -0.416   Cg    14      0RU   0.289000
   278   H3   -0.760   -1.328   -0.750   H1    14      0RU   0.000000
   279   O3    1.228   -1.222   -1.302   Oh    14      0RU  -0.683000
   280  H3O    2.016   -1.330   -0.749   Ho    14      0RU   0.428000
   281   C2    0.434   -1.283    1.141   Cg    14      0RU   0.293000
   282   H2   -0.141   -2.177    1.390   H1    14      0RU   0.000000
   283   O2    1.853   -1.565    1.350   Oh    14      0RU  -0.670000
   284  H2O    1.985   -1.921    2.235   Ho    14      0RU   0.420000
   285   C1   -1.119    1.469   -0.755   Cg    15      0XD   0.428000
   286   H1   -0.728    2.203   -1.459   H1    15      0XD   0.000000
   287   C2   -0.931   -0.076   -1.260   Cg    15      0XD   0.248000
   288   H2   -0.143   -0.085   -2.014   H1    15      0XD   0.000000
   289   C3   -0.429   -0.940    0.033   Cg    15      0XD   0.302000
   290   H3   -1.284   -1.475    0.450   H1    15      0XD   0.000000
   291   C4    0.085    0.118    1.157   Cg    15      0XD   0.237000
   292   H4   -0.439   -0.090    2.090   H1    15      0XD   0.000000
   293   C5    1.601    0.148    1.443   Cg    15      0XD   0.280000
   294  H52    1.780    0.708    2.361   H1    15      0XD   0.000000
   295  H51    1.994   -0.859    1.584   H1    15      0XD   0.000000
   296   O5    2.308    0.802    0.371   Oh    15      0XD  -0.678000
   297  H5O    1.903    1.664    0.233   Ho    15      0XD   0.422000
   298   O4   -0.375    1.543    0.615   Os    15      0XD  -0.507000
   299   O3    0.569   -1.915   -0.349   Oh    15      0XD  -0.714000
   300  H3O    0.216   -2.466   -1.055   Ho    15      0XD   0.426000
   301   O2   -2.130   -0.654   -1.847   Oh    15      0XD  -0.657000
   302  H2O   -2.880   -0.096   -1.599   Ho    15      0XD   0.407000
   303   C1   -1.658   -0.233    1.208   Cg    16      0XU   0.388000
   304   H1   -1.765   -0.053    2.278   H2    16      0XU   0.000000
   305   O4   -1.195    1.077    0.504   Os    16      0XU  -0.427000
   306   C4    0.228    0.956   -0.183   Cg    16      0XU   0.142000
   307   H4    0.898    1.684    0.278   H1    16      0XU   0.000000
   308   C5    0.109    1.268   -1.687   Cg    16      0XU   0.285000
   309  H52   -0.581    0.572   -2.166   H1    16      0XU   0.000000
   310  H51    1.084    1.172   -2.165   H1    16      0XU   0.000000
   311   O5   -0.368    2.612   -1.877   Oh    16      0XU  -0.635000
   312  H5O    0.136    3.213   -1.325   Ho    16      0XU   0.396000
   313   C3    0.749   -0.538    0.189   Cg    16      0XU   0.224000
   314   H3    1.577   -0.440    0.893   H1    16      0XU   0.000000
   315   O3    1.226   -1.263   -0.973   Oh    16      0XU  -0.662000
   316  H3O    1.680   -2.063   -0.687   Ho    16      0XU   0.412000
   317   C2   -0.489   -1.331    0.907   Cg    16      0XU   0.382000
   318   H2   -0.872   -2.093    0.227   H1    16      0XU   0.000000
   319   O2   -0.027   -1.990    2.119   Oh    16      0XU  -0.731000
   320  H2O   -0.732   -2.550    2.461   Ho    16      0XU   0.420000
   321   O1   -2.733    1.253   -0.675   Os    17      1AD  -0.388000
   322   C1   -1.317    1.222   -0.674   Cg    17      1AD   0.368000
   323   H1   -0.912    2.122   -1.137   H2    17      1AD   0.000000
   324   C2   -0.763   -0.130   -1.402   Cg    17      1AD   0.278000
   325   H2   -1.604   -0.721   -1.769   H1    17      1AD   0.000000
   326   C3    0.064   -0.988   -0.278   Cg    17      1AD   0.370000
   327   H3    1.117   -1.043   -0.558   H1    17      1AD   0.000000
   328   C4   -0.099   -0.232    1.142   Cg    17      1AD   0.147000
   329   H4   -0.738   -0.816    1.805   H1    17      1AD   0.000000
   330   C5    1.238    0.032    1.839   Cg    17      1AD   0.338000
   331  H52    1.783   -0.902    1.977   H1    17      1AD   0.000000
   332  H51    1.069    0.480    2.818   H1    17      1AD   0.000000
   333   O5    2.023    0.932    1.037   Oh    17      1AD  -0.696000
   334  H5O    1.607    1.800    1.075   Ho    17      1AD   0.399000
   335   O4   -0.845    1.127    0.811   Os    17      1AD  -0.453000
   336   O3   -0.452   -2.334   -0.175   Oh    17      1AD  -0.703000
   337  H3O   -0.340   -2.781   -1.019   Ho    17      1AD   0.404000
   338   O2    0.101    0.184   -2.535   Oh    17      1AD  -0.688000
   339  H2O    0.800    0.794   -2.281   Ho    17      1AD   0.430000
   340   O1   -0.894   -0.094    2.512   Os    18      1AU  -0.388000
   341   C1    0.346    0.129    1.853   Cg    18      1AU   0.477000
   342   H1    1.126    0.400    2.564   H2    18      1AU   0.000000
   343   O4    0.072    1.292    0.851   Os    18      1AU  -0.532000
   344   C4    0.131    0.839   -0.674   Cg    18      1AU   0.327000
   345   H4    0.957    1.363   -1.157   H1    18      1AU   0.000000
   346   C5   -1.189    1.192   -1.377   Cg    18      1AU   0.227000
   347  H52   -2.022    0.702   -0.873   H1    18      1AU   0.000000
   348  H51   -1.167    0.856   -2.413   H1    18      1AU   0.000000
   349   O5   -1.396    2.617   -1.347   Oh    18      1AU  -0.650000
   350  H5O   -1.257    2.937   -0.449   Ho    18      1AU   0.397000
   351   C3    0.434   -0.755   -0.628   Cg    18      1AU   0.215000
   352   H3   -0.448   -1.302   -0.963   H1    18      1AU   0.000000
   353   O3    1.547   -1.092   -1.493   Oh    18      1AU  -0.728000
   354  H3O    1.657   -2.050   -1.519   Ho    18      1AU   0.437000
   355   C2    0.768   -1.151    0.924   Cg    18      1AU   0.328000
   356   H2    1.845   -1.293    1.029   H1    18      1AU   0.000000
   357   O2    0.111   -2.399    1.283   Oh    18      1AU  -0.721000
   358  H2O   -0.625   -2.191    1.875   Ho    18      1AU   0.417000
   359   C2    0.483    0.487    1.565   Cg    19      1BD   0.241000
   360   C3    1.057   -0.757    0.661   Cg    19      1BD   0.440000
   361   H3    0.406   -1.619    0.809   H1    19      1BD   0.000000
   362   C4    0.924   -0.299   -0.904   Cg    19      1BD   0.225000
   363   H4    1.894    0.072   -1.241   H1    19      1BD   0.000000
   364   C5   -0.120    0.946   -0.960   Cg    19      1BD   0.271000
   365   H5    0.356    1.777   -1.483   H1    19      1BD   0.000000
   366   C6   -1.481    0.638   -1.617   Cg    19      1BD   0.281000
   367  H62   -2.044   -0.063   -0.998   H1    19      1BD   0.000000
   368  H61   -1.333    0.184   -2.597   H1    19      1BD   0.000000
   369   O6   -2.253    1.845   -1.792   Oh    19      1BD  -0.679000
   370  H6O   -1.852    2.399   -2.464   Ho    19      1BD   0.411000
   371   O5   -0.344    1.353    0.558   Os    19      1BD  -0.452000
   372   O4    0.541   -1.408   -1.767   Oh    19      1BD  -0.710000
   373  H4O    1.295   -1.998   -1.890   Ho    19      1BD   0.435000
   374   O3    2.413   -1.185    0.959   Oh    19      1BD  -0.732000
   375  H3O    2.402   -2.111    1.208   Ho    19      1BD   0.404000
   376   C1   -0.369    0.066    2.785   Cg    19      1BD   0.313000
   377  H12    0.261   -0.399    3.544   H1    19      1BD   0.000000
   378  H11   -0.842    0.944    3.227   H1    19      1BD   0.000000
   379   O1   -1.395   -0.871    2.397   Os    19      1BD  -0.448000
   380   C2   -1.255   -0.175    0.968   Cg    20      1BU   0.247000
   381   O5   -0.792    1.133    0.238   Os    20      1BU  -0.385000
   382   C5    0.483    0.934   -0.677   Cg    20      1BU   0.210000
   383   H5    1.269    1.609   -0.337   H1    20      1BU   0.000000
   384   C6    0.135    1.262   -2.142   Cg    20      1BU   0.332000
   385  H62   -0.678    0.624   -2.489   H1    20      1BU   0.000000
   386  H61    1.004    1.087   -2.777   H1    20      1BU   0.000000
   387   O6   -0.257    2.643   -2.276   Oh    20      1BU  -0.701000
   388  H6O    0.412    3.215   -1.896   Ho    20      1BU   0.409000
   389   C4    0.951   -0.598   -0.409   Cg    20      1BU   0.283000
   390   H4    1.847   -0.565    0.212   H1    20      1BU   0.000000
   391   O4    1.276   -1.307   -1.635   Oh    20      1BU  -0.755000
   392  H4O    1.673   -2.158   -1.417   Ho    20      1BU   0.434000
   393   C3   -0.245   -1.341    0.426   Cg    20      1BU   0.382000
   394   H3   -0.789   -1.989   -0.263   H1    20      1BU   0.000000
   395   O3    0.303   -2.178    1.483   Oh    20      1BU  -0.742000
   396  H3O   -0.368   -2.818    1.744   Ho    20      1BU   0.426000
   397   C1   -1.207    0.050    2.504   Cg    20      1BU   0.299000
   398  H12   -1.537   -0.848    3.030   H1    20      1BU   0.000000
   399  H11   -0.181    0.262    2.810   H1    20      1BU   0.000000
   400   O1   -2.043    1.158    2.902   Os    20      1BU  -0.439000
   401   C2    0.575    0.349    1.515   Cg    21      1CD   0.284000
   402   C3    1.036   -0.933    0.605   Cg    21      1CD   0.282000
   403   H3    2.073   -1.205    0.810   H1    21      1CD   0.000000
   404   C4    0.837   -0.490   -0.959   Cg    21      1CD   0.332000
   405   H4    0.370   -1.288   -1.537   H1    21      1CD   0.000000
   406   C5   -0.064    0.858   -0.986   Cg    21      1CD   0.309000
   407   H5    0.436    1.641   -1.560   H1    21      1CD   0.000000
   408   C6   -1.461    0.590   -1.572   Cg    21      1CD   0.265000
   409  H62   -2.040   -0.027   -0.884   H1    21      1CD   0.000000
   410  H61   -1.372    0.053   -2.516   H1    21      1CD   0.000000
   411   O6   -2.169    1.822   -1.816   Oh    21      1CD  -0.664000
   412  H6O   -1.753    2.322   -2.521   Ho    21      1CD   0.412000
   413   O5   -0.174    1.305    0.529   Os    21      1CD  -0.498000
   414   O4    2.140   -0.215   -1.540   Oh    21      1CD  -0.784000
   415  H4O    2.643    0.381   -0.972   Ho    21      1CD   0.444000
   416   O3    0.205   -2.107    0.857   Oh    21      1CD  -0.716000
   417  H3O    0.635   -2.888    0.487   Ho    21      1CD   0.432000
   418   C1   -0.259    0.055    2.795   Cg    21      1CD   0.370000
   419  H12    0.333   -0.543    3.490   H1    21      1CD   0.000000
   420  H11   -0.526    0.988    3.293   H1    21      1CD   0.000000
   421   O1   -1.465   -0.668    2.480   Os    21      1CD  -0.468000
   422   C2   -1.371    0.376    0.807   Cg    22      1CU   0.239000
   423   O5   -0.905    0.758   -0.648   Os    22      1CU  -0.449000
   424   C5    0.503    0.151   -1.016   Cg    22      1CU   0.310000
   425   H5    1.192    0.960   -1.269   H1    22      1CU   0.000000
   426   C6    0.330   -0.774   -2.221   Cg    22      1CU   0.272000
   427  H62   -0.416   -1.542   -2.012   H1    22      1CU   0.000000
   428  H61    1.274   -1.263   -2.462   H1    22      1CU   0.000000
   429   O6   -0.094    0.009   -3.344   Oh    22      1CU  -0.652000
   430  H6O    0.564    0.683   -3.531   Ho    22      1CU   0.397000
   431   C4    0.996   -0.637    0.313   Cg    22      1CU   0.293000
   432   H4    1.384   -1.632    0.082   H1    22      1CU   0.000000
   433   O4    2.039    0.139    0.919   Oh    22      1CU  -0.763000
   434  H4O    2.783    0.202    0.316   Ho    22      1CU   0.431000
   435   C3   -0.243   -0.671    1.361   Cg    22      1CU   0.333000
   436   H3    0.068   -0.433    2.379   H1    22      1CU   0.000000
   437   O3   -0.726   -2.026    1.327   Oh    22      1CU  -0.691000
   438  H3O   -1.495   -2.105    1.896   Ho    22      1CU   0.410000
   439   C1   -1.417    1.656    1.657   Cg    22      1CU   0.287000
   440  H12   -1.806    1.442    2.653   H1    22      1CU   0.000000
   441  H11   -0.411    2.065    1.767   H1    22      1CU   0.000000
   442   O1   -2.247    2.644    1.025   Os    22      1CU  -0.417000
   443   O1   -2.902    0.826   -0.244   Os    23      1DD  -0.388000
   444   C1   -1.503    0.935   -0.464   Cg    23      1DD   0.380000
   445   H1   -1.273    1.872   -0.971   H1    23      1DD   0.000000
   446   C2   -0.960   -0.358   -1.296   Cg    23      1DD   0.229000
   447   H2   -1.740   -1.121   -1.313   H1    23      1DD   0.000000
   448   C3    0.306   -0.974   -0.452   Cg    23      1DD   0.298000
   449   H3    0.264   -2.062   -0.422   H1    23      1DD   0.000000
   450   C4    0.235   -0.335    1.039   Cg    23      1DD   0.189000
   451   H4   -0.232   -1.077    1.688   H1    23      1DD   0.000000
   452   C5    1.559    0.116    1.678   Cg    23      1DD   0.305000
   453  H52    2.259   -0.718    1.726   H1    23      1DD   0.000000
   454  H51    2.011    0.919    1.096   H1    23      1DD   0.000000
   455   O5    1.296    0.589    3.010   Oh    23      1DD  -0.697000
   456  H5O    0.641    1.292    2.954   Ho    23      1DD   0.414000
   457   O4   -0.767    0.891    0.913   Os    23      1DD  -0.423000
   458   O3    1.537   -0.564   -1.090   Oh    23      1DD  -0.678000
   459  H3O    1.320   -0.383   -2.017   Ho    23      1DD   0.417000
   460   O2   -0.622   -0.037   -2.678   Oh    23      1DD  -0.651000
   461  H2O   -1.427    0.191   -3.157   Ho    23      1DD   0.411000
   462   O1   -2.652   -0.758    0.662   Os    24      1DU  -0.388000
   463   C1   -1.435   -0.344    1.262   Cg    24      1DU   0.436000
   464   H1   -1.569   -0.210    2.336   H2    24      1DU   0.000000
   465   O4   -1.036    1.013    0.619   Os    24      1DU  -0.517000
   466   C4    0.435    1.025    0.022   Cg    24      1DU   0.135000
   467   H4    1.010    1.806    0.523   H1    24      1DU   0.000000
   468   C5    0.401    1.318   -1.492   Cg    24      1DU   0.373000
   469  H52   -0.177    0.555   -2.015   H1    24      1DU   0.000000
   470  H51    1.415    1.317   -1.892   H1    24      1DU   0.000000
   471   O5   -0.189    2.607   -1.738   Oh    24      1DU  -0.725000
   472  H5O    0.069    3.213   -1.041   Ho    24      1DU   0.418000
   473   C3    1.051   -0.419    0.419   Cg    24      1DU   0.300000
   474   H3    1.747   -0.268    1.246   H1    24      1DU   0.000000
   475   O3    1.774   -1.042   -0.667   Oh    24      1DU  -0.642000
   476  H3O    1.258   -1.822   -0.924   Ho    24      1DU   0.405000
   477   C2   -0.181   -1.358    0.963   Cg    24      1DU   0.284000
   478   H2    0.107   -1.886    1.871   H1    24      1DU   0.000000
   479   O2   -0.531   -2.341   -0.065   Oh    24      1DU  -0.680000
   480  H2O   -1.497   -2.406   -0.089   Ho    24      1DU   0.407000
   481   C2    0.606    0.521    1.600   Cg    25      1JD   0.192000
   482   C3    1.139   -0.780    0.761   Cg    25      1JD   0.393000
   483   H3    2.154   -1.067    1.041   H1    25      1JD   0.000000
   484   C4    1.061   -0.358   -0.824   Cg    25      1JD   0.233000
   485   H4    2.046    0.008   -1.112   H1    25      1JD   0.000000
   486   C5    0.033    0.894   -0.943   Cg    25      1JD   0.190000
   487   H5    0.506    1.688   -1.523   H1    25      1JD   0.000000
   488   C6   -1.338    0.552   -1.561   Cg    25      1JD   0.340000
   489  H62   -1.895   -0.113   -0.900   H1    25      1JD   0.000000
   490  H61   -1.204    0.050   -2.519   H1    25      1JD   0.000000
   491   O6   -2.103    1.752   -1.787   Oh    25      1JD  -0.725000
   492  H6O   -1.624    2.348   -2.366   Ho    25      1JD   0.425000
   493   O5   -0.171    1.387    0.550   Os    25      1JD  -0.410000
   494   O4    0.730   -1.474   -1.702   Oh    25      1JD  -0.671000
   495  H4O    1.524   -1.790   -2.151   Ho    25      1JD   0.414000
   496   O3    0.250   -1.914    0.967   Oh    25      1JD  -0.748000
   497  H3O    0.146   -2.338    0.102   Ho    25      1JD   0.446000
   498   C1   -0.242    0.250    2.874   Cg    25      1JD   0.389000
   499  H12    0.340   -0.335    3.587   H1    25      1JD   0.000000
   500  H11   -0.516    1.192    3.351   H1    25      1JD   0.000000
   501   O1   -1.442   -0.474    2.554   Os    25      1JD  -0.468000
   502   C2   -1.155   -0.215    0.983   Cg    26      1JU   0.351000
   503   O5   -0.673    1.106    0.287   Os    26      1JU  -0.389000
   504   C5    0.685    0.936   -0.512   Cg    26      1JU   0.100000
   505   H5    1.418    1.643   -0.126   H1    26      1JU   0.000000
   506   C6    0.418    1.230   -1.996   Cg    26      1JU   0.349000
   507  H62   -0.388    0.598   -2.368   H1    26      1JU   0.000000
   508  H61    1.310    1.052   -2.597   H1    26      1JU   0.000000
   509   O6    0.036    2.608   -2.115   Oh    26      1JU  -0.684000
   510  H6O   -0.592    2.797   -1.411   Ho    26      1JU   0.411000
   511   C4    1.176   -0.571   -0.182   Cg    26      1JU   0.284000
   512   H4    1.983   -0.503    0.548   H1    26      1JU   0.000000
   513   O4    1.675   -1.268   -1.342   Oh    26      1JU  -0.657000
   514  H4O    1.046   -1.985   -1.514   Ho    26      1JU   0.410000
   515   C3   -0.074   -1.363    0.523   Cg    26      1JU   0.223000
   516   H3    0.274   -1.948    1.374   H1    26      1JU   0.000000
   517   O3   -0.679   -2.268   -0.450   Oh    26      1JU  -0.671000
   518  H3O   -1.633   -2.087   -0.447   Ho    26      1JU   0.416000
   519   C1   -1.158   -0.035    2.527   Cg    26      1JU   0.333000
   520  H12   -1.467   -0.961    3.012   H1    26      1JU   0.000000
   521  H11   -0.151    0.204    2.869   H1    26      1JU   0.000000
   522   O1   -2.051    1.029    2.938   Os    26      1JU  -0.476000
   523   C2    0.305    1.481    0.609   Cg    27      1PD   0.324000
   524   C3    0.961    0.054    1.053   Cg    27      1PD   0.334000
   525   H3    0.314   -0.387    1.812   H1    27      1PD   0.000000
   526   C4    0.891   -0.930   -0.244   Cg    27      1PD   0.282000
   527   H4    0.656   -1.957    0.038   H1    27      1PD   0.000000
   528   C5   -0.204   -0.291   -1.263   Cg    27      1PD   0.194000
   529   H5    0.204   -0.198   -2.271   H1    27      1PD   0.000000
   530   C6   -1.506   -1.091   -1.310   Cg    27      1PD   0.291000
   531  H62   -1.978   -1.118   -0.327   H1    27      1PD   0.000000
   532  H61   -1.310   -2.114   -1.632   H1    27      1PD   0.000000
   533   O6   -2.392   -0.466   -2.248   Oh    27      1PD  -0.695000
   534  H6O   -1.976   -0.442   -3.113   Ho    27      1PD   0.411000
   535   O5   -0.520    1.149   -0.695   Os    27      1PD  -0.453000
   536   O4    2.146   -0.895   -0.943   Oh    27      1PD  -0.683000
   537  H4O    2.840   -1.232   -0.372   Ho    27      1PD   0.421000
   538   O3    2.277    0.159    1.628   Oh    27      1PD  -0.661000
   539  H3O    2.589   -0.714    1.879   Ho    27      1PD   0.415000
   540   C1   -0.591    2.172    1.643   Cg    27      1PD   0.286000
   541  H12   -0.036    2.361    2.563   H1    27      1PD   0.000000
   542  H11   -0.955    3.126    1.257   H1    27      1PD   0.000000
   543   O1   -1.715    1.331    1.936   Os    27      1PD  -0.466000
   544   C2   -1.406    0.466    0.684   Cg    28      1PU   0.288000
   545   O5   -0.807    0.821   -0.730   Os    28      1PU  -0.480000
   546   C5    0.494   -0.001   -1.068   Cg    28      1PU   0.369000
   547   H5    1.285    0.687   -1.375   H1    28      1PU   0.000000
   548   C6    0.177   -0.957   -2.218   Cg    28      1PU   0.215000
   549  H62   -0.664   -1.603   -1.960   H1    28      1PU   0.000000
   550  H61    1.042   -1.582   -2.440   H1    28      1PU   0.000000
   551   O6   -0.155   -0.184   -3.378   Oh    28      1PU  -0.678000
   552  H6O    0.581    0.391   -3.601   Ho    28      1PU   0.421000
   553   C4    0.887   -0.775    0.304   Cg    28      1PU   0.192000
   554   H4    1.125   -1.825    0.128   H1    28      1PU   0.000000
   555   O4    2.049   -0.105    0.822   Oh    28      1PU  -0.711000
   556  H4O    2.779   -0.210    0.207   Ho    28      1PU   0.438000
   557   C3   -0.375   -0.622    1.326   Cg    28      1PU   0.334000
   558   H3   -0.861   -1.597    1.382   H1    28      1PU   0.000000
   559   O3    0.029   -0.269    2.663   Oh    28      1PU  -0.714000
   560  H3O    0.659   -0.916    2.989   Ho    28      1PU   0.424000
   561   C1   -1.625    1.774    1.468   Cg    28      1PU   0.365000
   562  H12   -2.120    1.575    2.420   H1    28      1PU   0.000000
   563  H11   -0.665    2.247    1.676   H1    28      1PU   0.000000
   564   O1   -2.428    2.685    0.700   Os    28      1PU  -0.463000
   565   O1    1.235    1.166    2.310   Os    29      1RD  -0.388000
   566   C1    0.174    0.308    1.924   Cg    29      1RD   0.445000
   567   H1   -0.437    0.020    2.780   H2    29      1RD   0.000000
   568   C2    0.702   -0.979    1.057   Cg    29      1RD   0.318000
   569   H2   -0.031   -1.771    1.210   H1    29      1RD   0.000000
   570   C3    0.607   -0.551   -0.524   Cg    29      1RD   0.275000
   571   H3    0.251   -1.384   -1.130   H1    29      1RD   0.000000
   572   C4   -0.390    0.732   -0.613   Cg    29      1RD   0.327000
   573   H4    0.090    1.558   -1.139   H1    29      1RD   0.000000
   574   C5   -1.717    0.379   -1.311   Cg    29      1RD   0.195000
   575  H52   -2.252   -0.373   -0.731   H1    29      1RD   0.000000
   576  H51   -1.515   -0.036   -2.299   H1    29      1RD   0.000000
   577   O5   -2.558    1.539   -1.464   Oh    29      1RD  -0.667000
   578  H5O   -2.146    2.188   -2.040   Ho    29      1RD   0.408000
   579   O4   -0.645    1.154    0.898   Os    29      1RD  -0.513000
   580   O3    1.913   -0.142   -1.009   Oh    29      1RD  -0.739000
   581  H3O    2.496   -0.002   -0.248   Ho    29      1RD   0.438000
   582   O2    2.003   -1.522    1.438   Oh    29      1RD  -0.709000
   583  H2O    2.220   -2.283    0.891   Ho    29      1RD   0.416000
   584   O1   -1.187   -0.259    2.538   Os    30      1RU  -0.388000
   585   C1    0.067    0.005    1.926   Cg    30      1RU   0.378000
   586   H1    0.810    0.255    2.685   H1    30      1RU   0.000000
   587   O4   -0.135    1.195    0.943   Os    30      1RU  -0.424000
   588   C4    0.012    0.778   -0.581   Cg    30      1RU   0.102000
   589   H4    0.907    1.257   -0.980   H1    30      1RU   0.000000
   590   C5   -1.212    1.197   -1.406   Cg    30      1RU   0.338000
   591  H52   -1.146    0.778   -2.410   H1    30      1RU   0.000000
   592  H51   -2.127    0.832   -0.940   H1    30      1RU   0.000000
   593   O5   -1.267    2.628   -1.506   Oh    30      1RU  -0.692000
   594  H5O   -2.021    2.885   -2.040   Ho    30      1RU   0.415000
   595   C3    0.222   -0.824   -0.557   Cg    30      1RU   0.289000
   596   H3   -0.694   -1.314   -0.891   H1    30      1RU   0.000000
   597   O3    1.295   -1.207   -1.443   Oh    30      1RU  -0.683000
   598  H3O    2.082   -1.316   -0.890   Ho    30      1RU   0.428000
   599   C2    0.500   -1.269    1.000   Cg    30      1RU   0.293000
   600   H2   -0.075   -2.163    1.249   H1    30      1RU   0.000000
   601   O2    1.919   -1.551    1.210   Oh    30      1RU  -0.670000
   602  H2O    2.051   -1.907    2.095   Ho    30      1RU   0.420000
   603   O1   -2.350    1.641   -0.425   Os    31      1XD  -0.388000
   604   C1   -0.988    1.377   -0.731   Cg    31      1XD   0.428000
   605   H1   -0.598    2.112   -1.436   H1    31      1XD   0.000000
   606   C2   -0.801   -0.167   -1.236   Cg    31      1XD   0.248000
   607   H2   -0.012   -0.176   -1.990   H1    31      1XD   0.000000
   608   C3   -0.298   -1.031    0.057   Cg    31      1XD   0.302000
   609   H3   -1.153   -1.566    0.474   H1    31      1XD   0.000000
   610   C4    0.216    0.026    1.180   Cg    31      1XD   0.237000
   611   H4   -0.308   -0.181    2.113   H1    31      1XD   0.000000
   612   C5    1.732    0.057    1.467   Cg    31      1XD   0.280000
   613  H52    1.910    0.617    2.385   H1    31      1XD   0.000000
   614  H51    2.125   -0.950    1.608   H1    31      1XD   0.000000
   615   O5    2.438    0.711    0.395   Oh    31      1XD  -0.678000
   616  H5O    2.034    1.573    0.256   Ho    31      1XD   0.422000
   617   O4   -0.244    1.452    0.639   Os    31      1XD  -0.507000
   618   O3    0.700   -2.006   -0.325   Oh    31      1XD  -0.714000
   619  H3O    0.347   -2.558   -1.031   Ho    31      1XD   0.426000
   620   O2   -2.000   -0.745   -1.824   Oh    31      1XD  -0.657000
   621  H2O   -2.749   -0.188   -1.575   Ho    31      1XD   0.407000
   622   O1   -2.748   -0.599    0.612   Os    32      1XU  -0.388000
   623   C1   -1.505   -0.200    1.174   Cg    32      1XU   0.388000
   624   H1   -1.612   -0.020    2.244   H2    32      1XU   0.000000
   625   O4   -1.043    1.110    0.470   Os    32      1XU  -0.427000
   626   C4    0.381    0.990   -0.217   Cg    32      1XU   0.142000
   627   H4    1.051    1.717    0.243   H1    32      1XU   0.000000
   628   C5    0.262    1.301   -1.721   Cg    32      1XU   0.285000
   629  H52   -0.428    0.605   -2.201   H1    32      1XU   0.000000
   630  H51    1.236    1.205   -2.199   H1    32      1XU   0.000000
   631   O5   -0.215    2.646   -1.912   Oh    32      1XU  -0.635000
   632  H5O    0.288    3.247   -1.360   Ho    32      1XU   0.396000
   633   C3    0.902   -0.505    0.155   Cg    32      1XU   0.224000
   634   H3    1.730   -0.407    0.859   H1    32      1XU   0.000000
   635   O3    1.378   -1.229   -1.007   Oh    32      1XU  -0.662000
   636  H3O    1.833   -2.030   -0.721   Ho    32      1XU   0.412000
   637   C2   -0.336   -1.298    0.874   Cg    32      1XU   0.382000
   638   H2   -0.720   -2.060    0.193   H1    32      1XU   0.000000
   639   O2    0.125   -1.956    2.085   Oh    32      1XU  -0.731000
   640  H2O   -0.579   -2.517    2.428   Ho    32      1XU   0.420000
   641   C1   -1.430    1.342   -0.848   Cg    33      2AD   0.368000
   642   H1   -1.026    2.243   -1.311   H2    33      2AD   0.000000
   643   C2   -0.876   -0.009   -1.576   Cg    33      2AD   0.278000
   644   H2   -1.717   -0.601   -1.943   H1    33      2AD   0.000000
   645   C3   -0.049   -0.868   -0.452   Cg    33      2AD   0.370000
   646   H3    1.003   -0.923   -0.732   H1    33      2AD   0.000000
   647   C4   -0.213   -0.111    0.968   Cg    33      2AD   0.147000
   648   H4   -0.852   -0.696    1.631   H1    33      2AD   0.000000
   649   C5    1.124    0.152    1.665   Cg    33      2AD   0.338000
   650  H52    1.669   -0.782    1.803   H1    33      2AD   0.000000
   651  H51    0.955    0.600    2.644   H1    33      2AD   0.000000
   652   O5    1.909    1.052    0.864   Oh    33      2AD  -0.696000
   653  H5O    1.494    1.920    0.901   Ho    33      2AD   0.399000
   654   O4   -0.958    1.248    0.637   Os    33      2AD  -0.453000
   655   O3   -0.566   -2.213   -0.349   Oh    33      2AD  -0.703000
   656  H3O   -0.454   -2.661   -1.193   Ho    33      2AD   0.404000
   657   O2   -0.013    0.305   -2.709   Os    33      2AD  -0.452000
   658   C1    0.257   -0.005    2.111   Cg    34      2AU   0.477000
   659   H1    1.037    0.266    2.822   H2    34      2AU   0.000000
   660   O4   -0.017    1.157    1.109   Os    34      2AU  -0.532000
   661   C4    0.041    0.705   -0.416   Cg    34      2AU   0.327000
   662   H4    0.868    1.228   -0.899   H1    34      2AU   0.000000
   663   C5   -1.278    1.058   -1.119   Cg    34      2AU   0.227000
   664  H52   -2.111    0.568   -0.615   H1    34      2AU   0.000000
   665  H51   -1.256    0.721   -2.155   H1    34      2AU   0.000000
   666   O5   -1.485    2.483   -1.089   Oh    34      2AU  -0.650000
   667  H5O   -1.346    2.803   -0.191   Ho    34      2AU   0.397000
   668   C3    0.345   -0.889   -0.370   Cg    34      2AU   0.215000
   669   H3   -0.537   -1.437   -0.704   H1    34      2AU   0.000000
   670   O3    1.458   -1.226   -1.235   Oh    34      2AU  -0.728000
   671  H3O    1.568   -2.185   -1.260   Ho    34      2AU   0.437000
   672   C2    0.679   -1.285    1.182   Cg    34      2AU   0.328000
   673   H2    1.756   -1.427    1.288   H1    34      2AU   0.000000
   674   O2    0.022   -2.533    1.542   Os    34      2AU  -0.498000
   675   O2    1.547    1.355    1.777   Os    35      2BD  -0.388000
   676   C2    0.506    0.467    1.344   Cg    35      2BD   0.241000
   677   C1   -0.346    0.046    2.564   Cg    35      2BD   0.313000
   678  H12    0.284   -0.419    3.322   H1    35      2BD   0.000000
   679  H11   -0.819    0.924    3.006   H1    35      2BD   0.000000
   680   O1   -1.372   -0.891    2.175   Oh    35      2BD  -0.668000
   681  H1O   -2.031   -0.941    2.873   Ho    35      2BD   0.414000
   682   C3    1.080   -0.777    0.440   Cg    35      2BD   0.440000
   683   H3    0.429   -1.639    0.588   H1    35      2BD   0.000000
   684   C4    0.948   -0.319   -1.125   Cg    35      2BD   0.225000
   685   H4    1.917    0.052   -1.462   H1    35      2BD   0.000000
   686   C5   -0.097    0.927   -1.181   Cg    35      2BD   0.271000
   687   H5    0.379    1.757   -1.705   H1    35      2BD   0.000000
   688   C6   -1.458    0.618   -1.838   Cg    35      2BD   0.281000
   689  H62   -2.021   -0.083   -1.220   H1    35      2BD   0.000000
   690  H61   -1.310    0.165   -2.818   H1    35      2BD   0.000000
   691   O6   -2.230    1.825   -2.014   Oh    35      2BD  -0.679000
   692  H6O   -1.829    2.379   -2.686   Ho    35      2BD   0.411000
   693   O5   -0.321    1.333    0.336   Os    35      2BD  -0.452000
   694   O4    0.564   -1.428   -1.989   Oh    35      2BD  -0.710000
   695  H4O    1.318   -2.017   -2.112   Ho    35      2BD   0.435000
   696   O3    2.436   -1.204    0.737   Oh    35      2BD  -0.732000
   697  H3O    2.425   -2.130    0.987   Ho    35      2BD   0.404000
   698   O2   -2.401   -0.529    0.374   Os    36      2BU  -0.388000
   699   C2   -1.060   -0.212    0.777   Cg    36      2BU   0.247000
   700   O5   -0.596    1.096    0.047   Os    36      2BU  -0.385000
   701   C5    0.679    0.897   -0.868   Cg    36      2BU   0.210000
   702   H5    1.465    1.572   -0.528   H1    36      2BU   0.000000
   703   C6    0.331    1.225   -2.333   Cg    36      2BU   0.332000
   704  H62   -0.482    0.587   -2.681   H1    36      2BU   0.000000
   705  H61    1.200    1.050   -2.968   H1    36      2BU   0.000000
   706   O6   -0.061    2.606   -2.467   Oh    36      2BU  -0.701000
   707  H6O    0.608    3.178   -2.087   Ho    36      2BU   0.409000
   708   C4    1.146   -0.635   -0.600   Cg    36      2BU   0.283000
   709   H4    2.042   -0.602    0.021   H1    36      2BU   0.000000
   710   O4    1.472   -1.344   -1.826   Oh    36      2BU  -0.755000
   711  H4O    1.869   -2.195   -1.608   Ho    36      2BU   0.434000
   712   C3   -0.050   -1.378    0.234   Cg    36      2BU   0.382000
   713   H3   -0.593   -2.026   -0.455   H1    36      2BU   0.000000
   714   O3    0.498   -2.215    1.291   Oh    36      2BU  -0.742000
   715  H3O   -0.173   -2.854    1.553   Ho    36      2BU   0.426000
   716   C1   -1.011    0.012    2.313   Cg    36      2BU   0.299000
   717  H12   -1.342   -0.885    2.838   H1    36      2BU   0.000000
   718  H11    0.014    0.225    2.618   H1    36      2BU   0.000000
   719   O1   -1.848    1.121    2.711   Oh    36      2BU  -0.627000
   720  H1O   -1.708    1.307    3.643   Ho    36      2BU   0.382000
   721   O2    1.736    1.080    1.705   Os    37      2CD  -0.388000
   722   C2    0.551    0.364    1.350   Cg    37      2CD   0.284000
   723   C1   -0.284    0.070    2.630   Cg    37      2CD   0.370000
   724  H12    0.308   -0.527    3.325   H1    37      2CD   0.000000
   725  H11   -0.550    1.003    3.128   H1    37      2CD   0.000000
   726   O1   -1.490   -0.653    2.315   Oh    37      2CD  -0.688000
   727  H1O   -1.223   -1.397    1.753   Ho    37      2CD   0.414000
   728   C3    1.012   -0.918    0.441   Cg    37      2CD   0.282000
   729   H3    2.049   -1.190    0.645   H1    37      2CD   0.000000
   730   C4    0.812   -0.475   -1.123   Cg    37      2CD   0.332000
   731   H4    0.345   -1.273   -1.702   H1    37      2CD   0.000000
   732   C5   -0.088    0.873   -1.151   Cg    37      2CD   0.309000
   733   H5    0.411    1.656   -1.724   H1    37      2CD   0.000000
   734   C6   -1.485    0.606   -1.736   Cg    37      2CD   0.265000
   735  H62   -2.065   -0.012   -1.049   H1    37      2CD   0.000000
   736  H61   -1.396    0.068   -2.680   H1    37      2CD   0.000000
   737   O6   -2.194    1.837   -1.980   Oh    37      2CD  -0.664000
   738  H6O   -1.777    2.337   -2.686   Ho    37      2CD   0.412000
   739   O5   -0.199    1.320    0.365   Os    37      2CD  -0.498000
   740   O4    2.115   -0.200   -1.705   Oh    37      2CD  -0.784000
   741  H4O    2.618    0.396   -1.137   Ho    37      2CD   0.444000
   742   O3    0.181   -2.092    0.692   Oh    37      2CD  -0.716000
   743  H3O    0.611   -2.873    0.323   Ho    37      2CD   0.432000
   744   O2   -2.473   -0.348    0.722   Os    38      2CU  -0.388000
   745   C2   -1.156    0.236    0.703   Cg    38      2CU   0.239000
   746   O5   -0.689    0.618   -0.752   Os    38      2CU  -0.449000
   747   C5    0.719    0.010   -1.120   Cg    38      2CU   0.310000
   748   H5    1.407    0.819   -1.373   H1    38      2CU   0.000000
   749   C6    0.545   -0.915   -2.325   Cg    38      2CU   0.272000
   750  H62   -0.201   -1.683   -2.116   H1    38      2CU   0.000000
   751  H61    1.489   -1.403   -2.566   H1    38      2CU   0.000000
   752   O6    0.121   -0.132   -3.448   Oh    38      2CU  -0.652000
   753  H6O    0.779    0.542   -3.635   Ho    38      2CU   0.397000
   754   C4    1.212   -0.778    0.209   Cg    38      2CU   0.293000
   755   H4    1.600   -1.772   -0.022   H1    38      2CU   0.000000
   756   O4    2.254   -0.002    0.815   Oh    38      2CU  -0.763000
   757  H4O    2.998    0.062    0.212   Ho    38      2CU   0.431000
   758   C3   -0.028   -0.811    1.257   Cg    38      2CU   0.333000
   759   H3    0.284   -0.574    2.276   H1    38      2CU   0.000000
   760   O3   -0.511   -2.167    1.223   Oh    38      2CU  -0.691000
   761  H3O   -1.280   -2.246    1.792   Ho    38      2CU   0.410000
   762   C1   -1.201    1.515    1.553   Cg    38      2CU   0.287000
   763  H12   -1.590    1.301    2.550   H1    38      2CU   0.000000
   764  H11   -0.196    1.925    1.663   H1    38      2CU   0.000000
   765   O1   -2.031    2.503    0.921   Oh    38      2CU  -0.624000
   766  H1O   -2.052    3.297    1.461   Ho    38      2CU   0.401000
   767   C1   -1.758    0.995   -0.664   Cg    39      2DD   0.380000
   768   H1   -1.527    1.932   -1.171   H1    39      2DD   0.000000
   769   C2   -1.215   -0.298   -1.496   Cg    39      2DD   0.229000
   770   H2   -1.994   -1.061   -1.513   H1    39      2DD   0.000000
   771   C3    0.051   -0.914   -0.653   Cg    39      2DD   0.298000
   772   H3    0.009   -2.002   -0.622   H1    39      2DD   0.000000
   773   C4   -0.020   -0.275    0.839   Cg    39      2DD   0.189000
   774   H4   -0.487   -1.018    1.487   H1    39      2DD   0.000000
   775   C5    1.304    0.175    1.478   Cg    39      2DD   0.305000
   776  H52    2.004   -0.658    1.526   H1    39      2DD   0.000000
   777  H51    1.756    0.978    0.897   H1    39      2DD   0.000000
   778   O5    1.041    0.649    2.810   Oh    39      2DD  -0.697000
   779  H5O    0.386    1.351    2.754   Ho    39      2DD   0.414000
   780   O4   -1.021    0.951    0.713   Os    39      2DD  -0.423000
   781   O3    1.283   -0.504   -1.290   Oh    39      2DD  -0.678000
   782  H3O    1.065   -0.323   -2.217   Ho    39      2DD   0.417000
   783   O2   -0.877    0.023   -2.878   Os    39      2DD  -0.434000
   784   C1   -1.679   -0.530    1.296   Cg    40      2DU   0.436000
   785   H1   -1.813   -0.396    2.370   H2    40      2DU   0.000000
   786   O4   -1.280    0.827    0.653   Os    40      2DU  -0.517000
   787   C4    0.191    0.839    0.056   Cg    40      2DU   0.135000
   788   H4    0.766    1.620    0.556   H1    40      2DU   0.000000
   789   C5    0.157    1.132   -1.458   Cg    40      2DU   0.373000
   790  H52   -0.421    0.369   -1.981   H1    40      2DU   0.000000
   791  H51    1.171    1.131   -1.859   H1    40      2DU   0.000000
   792   O5   -0.433    2.421   -1.705   Oh    40      2DU  -0.725000
   793  H5O   -0.176    3.027   -1.007   Ho    40      2DU   0.418000
   794   C3    0.807   -0.605    0.453   Cg    40      2DU   0.300000
   795   H3    1.503   -0.454    1.280   H1    40      2DU   0.000000
   796   O3    1.530   -1.228   -0.634   Oh    40      2DU  -0.642000
   797  H3O    1.014   -2.008   -0.890   Ho    40      2DU   0.405000
   798   C2   -0.425   -1.544    0.997   Cg    40      2DU   0.284000
   799   H2   -0.137   -2.072    1.905   H1    40      2DU   0.000000
   800   O2   -0.775   -2.527   -0.031   Os    40      2DU  -0.467000
   801   O2    1.733    1.297    1.787   Os    41      2JD  -0.388000
   802   C2    0.580    0.518    1.427   Cg    41      2JD   0.192000
   803   C1   -0.268    0.247    2.701   Cg    41      2JD   0.389000
   804  H12    0.315   -0.338    3.414   H1    41      2JD   0.000000
   805  H11   -0.542    1.189    3.178   H1    41      2JD   0.000000
   806   O1   -1.468   -0.477    2.381   Oh    41      2JD  -0.654000
   807  H1O   -1.188   -1.236    1.847   Ho    41      2JD   0.380000
   808   C3    1.113   -0.783    0.588   Cg    41      2JD   0.393000
   809   H3    2.128   -1.070    0.868   H1    41      2JD   0.000000
   810   C4    1.035   -0.361   -0.997   Cg    41      2JD   0.233000
   811   H4    2.020    0.005   -1.285   H1    41      2JD   0.000000
   812   C5    0.007    0.891   -1.116   Cg    41      2JD   0.190000
   813   H5    0.480    1.685   -1.696   H1    41      2JD   0.000000
   814   C6   -1.364    0.550   -1.734   Cg    41      2JD   0.340000
   815  H62   -1.921   -0.115   -1.073   H1    41      2JD   0.000000
   816  H61   -1.230    0.047   -2.692   H1    41      2JD   0.000000
   817   O6   -2.130    1.750   -1.960   Oh    41      2JD  -0.725000
   818  H6O   -1.650    2.346   -2.538   Ho    41      2JD   0.425000
   819   O5   -0.196    1.384    0.377   Os    41      2JD  -0.410000
   820   O4    0.704   -1.477   -1.875   Oh    41      2JD  -0.671000
   821  H4O    1.498   -1.792   -2.324   Ho    41      2JD   0.414000
   822   O3    0.225   -1.917    0.794   Oh    41      2JD  -0.748000
   823  H3O    0.120   -2.341   -0.071   Ho    41      2JD   0.446000
   824   O2   -2.294   -0.562    0.341   Os    42      2JU  -0.388000
   825   C2   -0.962   -0.243    0.791   Cg    42      2JU   0.351000
   826   O5   -0.480    1.078    0.095   Os    42      2JU  -0.389000
   827   C5    0.879    0.908   -0.703   Cg    42      2JU   0.100000
   828   H5    1.611    1.615   -0.318   H1    42      2JU   0.000000
   829   C6    0.611    1.202   -2.188   Cg    42      2JU   0.349000
   830  H62   -0.194    0.570   -2.560   H1    42      2JU   0.000000
   831  H61    1.503    1.023   -2.789   H1    42      2JU   0.000000
   832   O6    0.230    2.580   -2.307   Oh    42      2JU  -0.684000
   833  H6O   -0.399    2.768   -1.603   Ho    42      2JU   0.411000
   834   C4    1.369   -0.599   -0.374   Cg    42      2JU   0.284000
   835   H4    2.176   -0.531    0.357   H1    42      2JU   0.000000
   836   O4    1.869   -1.296   -1.534   Oh    42      2JU  -0.657000
   837  H4O    1.239   -2.013   -1.706   Ho    42      2JU   0.410000
   838   C3    0.119   -1.391    0.331   Cg    42      2JU   0.223000
   839   H3    0.468   -1.977    1.182   H1    42      2JU   0.000000
   840   O3   -0.485   -2.296   -0.642   Oh    42      2JU  -0.671000
   841  H3O   -1.439   -2.115   -0.639   Ho    42      2JU   0.416000
   842   C1   -0.965   -0.063    2.335   Cg    42      2JU   0.333000
   843  H12   -1.274   -0.989    2.820   H1    42      2JU   0.000000
   844  H11    0.042    0.176    2.677   H1    42      2JU   0.000000
   845   O1   -1.858    1.001    2.746   Oh    42      2JU  -0.697000
   846  H1O   -1.766    1.153    3.690   Ho    42      2JU   0.415000
   847   O2    1.400    2.216    0.150   Os    43      2PD  -0.388000
   848   C2    0.345    1.300    0.484   Cg    43      2PD   0.324000
   849   C1   -0.551    1.992    1.518   Cg    43      2PD   0.286000
   850  H12    0.004    2.180    2.438   H1    43      2PD   0.000000
   851  H11   -0.915    2.945    1.133   H1    43      2PD   0.000000
   852   O1   -1.675    1.151    1.812   Oh    43      2PD  -0.691000
   853  H1O   -2.232    1.578    2.467   Ho    43      2PD   0.419000
   854   C3    1.000   -0.127    0.928   Cg    43      2PD   0.334000
   855   H3    0.354   -0.567    1.687   H1    43      2PD   0.000000
   856   C4    0.930   -1.111   -0.369   Cg    43      2PD   0.282000
   857   H4    0.695   -2.138   -0.087   H1    43      2PD   0.000000
   858   C5   -0.164   -0.472   -1.387   Cg    43      2PD   0.194000
   859   H5    0.244   -0.379   -2.396   H1    43      2PD   0.000000
   860   C6   -1.467   -1.271   -1.435   Cg    43      2PD   0.291000
   861  H62   -1.938   -1.299   -0.452   H1    43      2PD   0.000000
   862  H61   -1.270   -2.294   -1.757   H1    43      2PD   0.000000
   863   O6   -2.353   -0.647   -2.372   Oh    43      2PD  -0.695000
   864  H6O   -1.937   -0.622   -3.237   Ho    43      2PD   0.411000
   865   O5   -0.480    0.969   -0.819   Os    43      2PD  -0.453000
   866   O4    2.185   -1.076   -1.068   Oh    43      2PD  -0.683000
   867  H4O    2.879   -1.412   -0.497   Ho    43      2PD   0.421000
   868   O3    2.317   -0.022    1.503   Oh    43      2PD  -0.661000
   869  H3O    2.629   -0.894    1.754   Ho    43      2PD   0.415000
   870   O2   -2.449   -0.340    0.491   Os    44      2PU  -0.388000
   871   C2   -1.179    0.322    0.607   Cg    44      2PU   0.288000
   872   O5   -0.579    0.678   -0.807   Os    44      2PU  -0.480000
   873   C5    0.722   -0.144   -1.145   Cg    44      2PU   0.369000
   874   H5    1.513    0.543   -1.452   H1    44      2PU   0.000000
   875   C6    0.405   -1.100   -2.295   Cg    44      2PU   0.215000
   876  H62   -0.436   -1.747   -2.037   H1    44      2PU   0.000000
   877  H61    1.270   -1.725   -2.517   H1    44      2PU   0.000000
   878   O6    0.073   -0.328   -3.455   Oh    44      2PU  -0.678000
   879  H6O    0.809    0.248   -3.677   Ho    44      2PU   0.421000
   880   C4    1.115   -0.918    0.227   Cg    44      2PU   0.192000
   881   H4    1.353   -1.968    0.051   H1    44      2PU   0.000000
   882   O4    2.277   -0.249    0.745   Oh    44      2PU  -0.711000
   883  H4O    3.007   -0.353    0.130   Ho    44      2PU   0.438000
   884   C3   -0.147   -0.766    1.249   Cg    44      2PU   0.334000
   885   H3   -0.633   -1.741    1.305   H1    44      2PU   0.000000
   886   O3    0.257   -0.412    2.586   Oh    44      2PU  -0.714000
   887  H3O    0.887   -1.059    2.912   Ho    44      2PU   0.424000
   888   C1   -1.397    1.631    1.391   Cg    44      2PU   0.365000
   889  H12   -1.892    1.431    2.343   H1    44      2PU   0.000000
   890  H11   -0.437    2.104    1.599   H1    44      2PU   0.000000
   891   O1   -2.200    2.542    0.623   Oh    44      2PU  -0.687000
   892  H1O   -2.337    3.349    1.123   Ho    44      2PU   0.418000
   893   C1    0.377    0.243    2.112   Cg    45      2RD   0.445000
   894   H1   -0.233   -0.046    2.968   H2    45      2RD   0.000000
   895   C2    0.905   -1.044    1.245   Cg    45      2RD   0.318000
   896   H2    0.172   -1.836    1.398   H1    45      2RD   0.000000
   897   C3    0.810   -0.617   -0.336   Cg    45      2RD   0.275000
   898   H3    0.454   -1.450   -0.942   H1    45      2RD   0.000000
   899   C4   -0.187    0.666   -0.425   Cg    45      2RD   0.327000
   900   H4    0.293    1.492   -0.951   H1    45      2RD   0.000000
   901   C5   -1.514    0.313   -1.123   Cg    45      2RD   0.195000
   902  H52   -2.049   -0.439   -0.542   H1    45      2RD   0.000000
   903  H51   -1.312   -0.102   -2.110   H1    45      2RD   0.000000
   904   O5   -2.355    1.473   -1.275   Oh    45      2RD  -0.667000
   905  H5O   -1.943    2.123   -1.851   Ho    45      2RD   0.408000
   906   O4   -0.441    1.089    1.087   Os    45      2RD  -0.513000
   907   O3    2.116   -0.207   -0.821   Oh    45      2RD  -0.739000
   908  H3O    2.700   -0.068   -0.060   Ho    45      2RD   0.438000
   909   O2    2.206   -1.588    1.626   Os    45      2RD  -0.487000
   910   C1    0.118   -0.123    2.199   Cg    46      2RU   0.378000
   911   H1    0.861    0.127    2.958   H1    46      2RU   0.000000
   912   O4   -0.084    1.067    1.216   Os    46      2RU  -0.424000
   913   C4    0.063    0.650   -0.309   Cg    46      2RU   0.102000
   914   H4    0.958    1.130   -0.707   H1    46      2RU   0.000000
   915   C5   -1.161    1.070   -1.134   Cg    46      2RU   0.338000
   916  H52   -1.095    0.650   -2.138   H1    46      2RU   0.000000
   917  H51   -2.076    0.705   -0.668   H1    46      2RU   0.000000
   918   O5   -1.216    2.501   -1.233   Oh    46      2RU  -0.692000
   919  H5O   -1.970    2.757   -1.768   Ho    46      2RU   0.415000
   920   C3    0.273   -0.952   -0.284   Cg    46      2RU   0.289000
   921   H3   -0.643   -1.441   -0.619   H1    46      2RU   0.000000
   922   O3    1.345   -1.335   -1.171   Oh    46      2RU  -0.683000
   923  H3O    2.133   -1.443   -0.618   Ho    46      2RU   0.428000
   924   C2    0.550   -1.396    1.273   Cg    46      2RU   0.293000
   925   H2   -0.024   -2.290    1.521   H1    46      2RU   0.000000
   926   O2    1.970   -1.678    1.482   Os    46      2RU  -0.444000
   927   C1   -1.288    1.463   -0.849   Cg    47      2XD   0.428000
   928   H1   -0.897    2.197   -1.553   H1    47      2XD   0.000000
   929   C2   -1.100   -0.082   -1.354   Cg    47      2XD   0.248000
   930   H2   -0.312   -0.090   -2.108   H1    47      2XD   0.000000
   931   C3   -0.598   -0.945   -0.061   Cg    47      2XD   0.302000
   932   H3   -1.453   -1.480    0.356   H1    47      2XD   0.000000
   933   C4   -0.084    0.112    1.063   Cg    47      2XD   0.237000
   934   H4   -0.608   -0.095    1.996   H1    47      2XD   0.000000
   935   C5    1.432    0.142    1.349   Cg    47      2XD   0.280000
   936  H52    1.610    0.703    2.267   H1    47      2XD   0.000000
   937  H51    1.825   -0.865    1.490   H1    47      2XD   0.000000
   938   O5    2.138    0.797    0.277   Oh    47      2XD  -0.678000
   939  H5O    1.734    1.658    0.139   Ho    47      2XD   0.422000
   940   O4   -0.544    1.538    0.521   Os    47      2XD  -0.507000
   941   O3    0.400   -1.921   -0.443   Oh    47      2XD  -0.714000
   942  H3O    0.047   -2.472   -1.149   Ho    47      2XD   0.426000
   943   O2   -2.299   -0.660   -1.941   Os    47      2XD  -0.444000
   944   C1   -1.701   -0.383    1.353   Cg    48      2XU   0.388000
   945   H1   -1.808   -0.203    2.423   H2    48      2XU   0.000000
   946   O4   -1.238    0.927    0.649   Os    48      2XU  -0.427000
   947   C4    0.185    0.806   -0.038   Cg    48      2XU   0.142000
   948   H4    0.855    1.534    0.422   H1    48      2XU   0.000000
   949   C5    0.066    1.118   -1.542   Cg    48      2XU   0.285000
   950  H52   -0.624    0.422   -2.022   H1    48      2XU   0.000000
   951  H51    1.041    1.022   -2.020   H1    48      2XU   0.000000
   952   O5   -0.411    2.462   -1.733   Oh    48      2XU  -0.635000
   953  H5O    0.093    3.063   -1.181   Ho    48      2XU   0.396000
   954   C3    0.706   -0.688    0.334   Cg    48      2XU   0.224000
   955   H3    1.534   -0.590    1.038   H1    48      2XU   0.000000
   956   O3    1.183   -1.413   -0.828   Oh    48      2XU  -0.662000
   957  H3O    1.637   -2.213   -0.543   Ho    48      2XU   0.412000
   958   C2   -0.532   -1.481    1.052   Cg    48      2XU   0.382000
   959   H2   -0.915   -2.243    0.372   H1    48      2XU   0.000000
   960   O2   -0.070   -2.140    2.263   Os    48      2XU  -0.505000
   961   C1   -1.497    1.132   -0.774   Cg    49      3AD   0.368000
   962   H1   -1.093    2.032   -1.237   H2    49      3AD   0.000000
   963   C2   -0.943   -0.219   -1.502   Cg    49      3AD   0.278000
   964   H2   -1.784   -0.811   -1.869   H1    49      3AD   0.000000
   965   O2   -0.080    0.094   -2.635   Oh    49      3AD  -0.688000
   966  H2O    0.619    0.704   -2.381   Ho    49      3AD   0.430000
   967   C3   -0.117   -1.078   -0.378   Cg    49      3AD   0.370000
   968   H3    0.936   -1.133   -0.658   H1    49      3AD   0.000000
   969   C4   -0.280   -0.321    1.042   Cg    49      3AD   0.147000
   970   H4   -0.919   -0.906    1.705   H1    49      3AD   0.000000
   971   C5    1.057   -0.058    1.740   Cg    49      3AD   0.338000
   972  H52    1.602   -0.992    1.877   H1    49      3AD   0.000000
   973  H51    0.888    0.390    2.719   H1    49      3AD   0.000000
   974   O5    1.842    0.842    0.938   Oh    49      3AD  -0.696000
   975  H5O    1.426    1.710    0.976   Ho    49      3AD   0.399000
   976   O4   -1.026    1.037    0.711   Os    49      3AD  -0.453000
   977   O3   -0.633   -2.424   -0.275   Os    49      3AD  -0.493000
   978   C1    0.391    0.003    1.911   Cg    50      3AU   0.477000
   979   H1    1.172    0.274    2.622   H2    50      3AU   0.000000
   980   O4    0.117    1.166    0.909   Os    50      3AU  -0.532000
   981   C4    0.176    0.713   -0.616   Cg    50      3AU   0.327000
   982   H4    1.002    1.237   -1.099   H1    50      3AU   0.000000
   983   C5   -1.144    1.066   -1.318   Cg    50      3AU   0.227000
   984  H52   -1.977    0.576   -0.815   H1    50      3AU   0.000000
   985  H51   -1.122    0.730   -2.355   H1    50      3AU   0.000000
   986   O5   -1.351    2.491   -1.289   Oh    50      3AU  -0.650000
   987  H5O   -1.212    2.811   -0.391   Ho    50      3AU   0.397000
   988   C3    0.479   -0.881   -0.569   Cg    50      3AU   0.215000
   989   H3   -0.403   -1.429   -0.904   H1    50      3AU   0.000000
   990   C2    0.813   -1.277    0.983   Cg    50      3AU   0.328000
   991   H2    1.890   -1.419    1.088   H1    50      3AU   0.000000
   992   O2    0.156   -2.525    1.342   Oh    50      3AU  -0.721000
   993  H2O   -0.579   -2.317    1.934   Ho    50      3AU   0.417000
   994   O3    1.592   -1.218   -1.434   Os    50      3AU  -0.485000
   995   C2    0.695    0.430    1.476   Cg    51      3BD   0.241000
   996   C1   -0.156    0.009    2.695   Cg    51      3BD   0.313000
   997  H12    0.473   -0.456    3.454   H1    51      3BD   0.000000
   998  H11   -0.629    0.887    3.138   H1    51      3BD   0.000000
   999   O1   -1.183   -0.928    2.307   Oh    51      3BD  -0.668000
  1000  H1O   -1.842   -0.978    3.004   Ho    51      3BD   0.414000
  1001   C3    1.269   -0.814    0.572   Cg    51      3BD   0.440000
  1002   H3    0.618   -1.676    0.719   H1    51      3BD   0.000000
  1003   C4    1.137   -0.356   -0.993   Cg    51      3BD   0.225000
  1004   H4    2.106    0.015   -1.330   H1    51      3BD   0.000000
  1005   C5    0.092    0.890   -1.049   Cg    51      3BD   0.271000
  1006   H5    0.568    1.720   -1.573   H1    51      3BD   0.000000
  1007   C6   -1.269    0.581   -1.707   Cg    51      3BD   0.281000
  1008  H62   -1.832   -0.119   -1.088   H1    51      3BD   0.000000
  1009  H61   -1.121    0.128   -2.687   H1    51      3BD   0.000000
  1010   O6   -2.041    1.788   -1.882   Oh    51      3BD  -0.679000
  1011  H6O   -1.640    2.342   -2.554   Ho    51      3BD   0.411000
  1012   O5   -0.132    1.297    0.468   Os    51      3BD  -0.452000
  1013   O4    0.753   -1.465   -1.857   Oh    51      3BD  -0.710000
  1014  H4O    1.507   -2.054   -1.980   Ho    51      3BD   0.435000
  1015   O3    2.625   -1.241    0.869   Os    51      3BD  -0.522000
  1016   C2   -1.182   -0.373    0.869   Cg    52      3BU   0.247000
  1017   C1   -1.134   -0.149    2.405   Cg    52      3BU   0.299000
  1018  H12   -1.464   -1.046    2.930   H1    52      3BU   0.000000
  1019  H11   -0.108    0.064    2.710   H1    52      3BU   0.000000
  1020   O1   -1.970    0.960    2.803   Oh    52      3BU  -0.627000
  1021  H1O   -1.830    1.146    3.734   Ho    52      3BU   0.382000
  1022   O5   -0.719    0.935    0.139   Os    52      3BU  -0.385000
  1023   C5    0.556    0.736   -0.776   Cg    52      3BU   0.210000
  1024   H5    1.342    1.411   -0.436   H1    52      3BU   0.000000
  1025   C6    0.208    1.064   -2.241   Cg    52      3BU   0.332000
  1026  H62   -0.605    0.426   -2.589   H1    52      3BU   0.000000
  1027  H61    1.077    0.889   -2.876   H1    52      3BU   0.000000
  1028   O6   -0.184    2.445   -2.375   Oh    52      3BU  -0.701000
  1029  H6O    0.486    3.017   -1.995   Ho    52      3BU   0.409000
  1030   C4    1.024   -0.796   -0.509   Cg    52      3BU   0.283000
  1031   H4    1.920   -0.763    0.113   H1    52      3BU   0.000000
  1032   O4    1.350   -1.505   -1.734   Oh    52      3BU  -0.755000
  1033  H4O    1.746   -2.356   -1.516   Ho    52      3BU   0.434000
  1034   C3   -0.172   -1.540    0.326   Cg    52      3BU   0.382000
  1035   H3   -0.716   -2.188   -0.363   H1    52      3BU   0.000000
  1036   O3    0.376   -2.376    1.383   Os    52      3BU  -0.510000
  1037   C2    0.662    0.278    1.447   Cg    53      3CD   0.284000
  1038   C1   -0.172   -0.015    2.727   Cg    53      3CD   0.370000
  1039  H12    0.420   -0.613    3.422   H1    53      3CD   0.000000
  1040  H11   -0.439    0.918    3.225   H1    53      3CD   0.000000
  1041   O1   -1.378   -0.738    2.412   Oh    53      3CD  -0.688000
  1042  H1O   -1.112   -1.483    1.850   Ho    53      3CD   0.414000
  1043   C3    1.124   -1.004    0.537   Cg    53      3CD   0.282000
  1044   H3    2.160   -1.276    0.742   H1    53      3CD   0.000000
  1045   C4    0.924   -0.560   -1.027   Cg    53      3CD   0.332000
  1046   H4    0.457   -1.359   -1.605   H1    53      3CD   0.000000
  1047   C5    0.024    0.787   -1.054   Cg    53      3CD   0.309000
  1048   H5    0.523    1.571   -1.628   H1    53      3CD   0.000000
  1049   C6   -1.373    0.520   -1.640   Cg    53      3CD   0.265000
  1050  H62   -1.953   -0.098   -0.952   H1    53      3CD   0.000000
  1051  H61   -1.284   -0.017   -2.584   H1    53      3CD   0.000000
  1052   O6   -2.082    1.752   -1.884   Oh    53      3CD  -0.664000
  1053  H6O   -1.665    2.252   -2.589   Ho    53      3CD   0.412000
  1054   O5   -0.087    1.235    0.461   Os    53      3CD  -0.498000
  1055   O4    2.227   -0.285   -1.608   Oh    53      3CD  -0.784000
  1056  H4O    2.730    0.311   -1.040   Ho    53      3CD   0.444000
  1057   O3    0.293   -2.177    0.789   Os    53      3CD  -0.478000
  1058   C2   -1.335    0.112    0.822   Cg    54      3CU   0.239000
  1059   C1   -1.380    1.392    1.673   Cg    54      3CU   0.287000
  1060  H12   -1.769    1.178    2.669   H1    54      3CU   0.000000
  1061  H11   -0.375    1.801    1.783   H1    54      3CU   0.000000
  1062   O1   -2.210    2.380    1.041   Oh    54      3CU  -0.624000
  1063  H1O   -2.230    3.174    1.581   Ho    54      3CU   0.401000
  1064   O5   -0.868    0.494   -0.632   Os    54      3CU  -0.449000
  1065   C5    0.540   -0.113   -1.001   Cg    54      3CU   0.310000
  1066   H5    1.228    0.696   -1.253   H1    54      3CU   0.000000
  1067   C6    0.367   -1.038   -2.205   Cg    54      3CU   0.272000
  1068  H62   -0.379   -1.806   -1.996   H1    54      3CU   0.000000
  1069  H61    1.311   -1.527   -2.447   H1    54      3CU   0.000000
  1070   O6   -0.057   -0.255   -3.328   Oh    54      3CU  -0.652000
  1071  H6O    0.600    0.419   -3.515   Ho    54      3CU   0.397000
  1072   C4    1.033   -0.901    0.329   Cg    54      3CU   0.293000
  1073   H4    1.421   -1.895    0.098   H1    54      3CU   0.000000
  1074   O4    2.075   -0.125    0.935   Oh    54      3CU  -0.763000
  1075  H4O    2.820   -0.062    0.332   Ho    54      3CU   0.431000
  1076   C3   -0.207   -0.935    1.377   Cg    54      3CU   0.333000
  1077   H3    0.105   -0.697    2.395   H1    54      3CU   0.000000
  1078   O3   -0.689   -2.290    1.343   Os    54      3CU  -0.475000
  1079   C1   -1.596    0.961   -0.597   Cg    55      3DD   0.380000
  1080   H1   -1.366    1.898   -1.104   H1    55      3DD   0.000000
  1081   C2   -1.053   -0.332   -1.429   Cg    55      3DD   0.229000
  1082   H2   -1.833   -1.095   -1.446   H1    55      3DD   0.000000
  1083   O2   -0.715   -0.011   -2.811   Oh    55      3DD  -0.651000
  1084  H2O   -1.520    0.218   -3.291   Ho    55      3DD   0.411000
  1085   C3    0.213   -0.947   -0.585   Cg    55      3DD   0.298000
  1086   H3    0.171   -2.036   -0.555   H1    55      3DD   0.000000
  1087   C4    0.142   -0.309    0.906   Cg    55      3DD   0.189000
  1088   H4   -0.325   -1.051    1.555   H1    55      3DD   0.000000
  1089   C5    1.465    0.141    1.545   Cg    55      3DD   0.305000
  1090  H52    2.166   -0.692    1.593   H1    55      3DD   0.000000
  1091  H51    1.918    0.945    0.964   H1    55      3DD   0.000000
  1092   O5    1.202    0.615    2.877   Oh    55      3DD  -0.697000
  1093  H5O    0.547    1.318    2.821   Ho    55      3DD   0.414000
  1094   O4   -0.860    0.917    0.780   Os    55      3DD  -0.423000
  1095   O3    1.444   -0.538   -1.223   Os    55      3DD  -0.455000
  1096   C1   -1.517   -0.496    1.247   Cg    56      3DU   0.436000
  1097   H1   -1.651   -0.362    2.320   H2    56      3DU   0.000000
  1098   O4   -1.118    0.861    0.604   Os    56      3DU  -0.517000
  1099   C4    0.353    0.874    0.007   Cg    56      3DU   0.135000
  1100   H4    0.928    1.654    0.507   H1    56      3DU   0.000000
  1101   C5    0.319    1.166   -1.507   Cg    56      3DU   0.373000
  1102  H52   -0.259    0.403   -2.030   H1    56      3DU   0.000000
  1103  H51    1.333    1.165   -1.908   H1    56      3DU   0.000000
  1104   O5   -0.271    2.455   -1.754   Oh    56      3DU  -0.725000
  1105  H5O   -0.013    3.061   -1.056   Ho    56      3DU   0.418000
  1106   C3    0.969   -0.571    0.404   Cg    56      3DU   0.300000
  1107   H3    1.665   -0.420    1.230   H1    56      3DU   0.000000
  1108   C2   -0.263   -1.510    0.947   Cg    56      3DU   0.284000
  1109   H2    0.025   -2.037    1.856   H1    56      3DU   0.000000
  1110   O2   -0.613   -2.492   -0.080   Oh    56      3DU  -0.680000
  1111  H2O   -1.579   -2.557   -0.104   Ho    56      3DU   0.407000
  1112   O3    1.692   -1.194   -0.683   Os    56      3DU  -0.431000
  1113   C2    0.668    0.468    1.508   Cg    57      3JD   0.192000
  1114   C1   -0.180    0.198    2.782   Cg    57      3JD   0.389000
  1115  H12    0.402   -0.388    3.496   H1    57      3JD   0.000000
  1116  H11   -0.454    1.139    3.260   H1    57      3JD   0.000000
  1117   O1   -1.380   -0.527    2.463   Oh    57      3JD  -0.654000
  1118  H1O   -1.100   -1.285    1.929   Ho    57      3JD   0.380000
  1119   C3    1.201   -0.833    0.670   Cg    57      3JD   0.393000
  1120   H3    2.216   -1.120    0.950   H1    57      3JD   0.000000
  1121   C4    1.123   -0.411   -0.915   Cg    57      3JD   0.233000
  1122   H4    2.109   -0.045   -1.203   H1    57      3JD   0.000000
  1123   C5    0.095    0.841   -1.034   Cg    57      3JD   0.190000
  1124   H5    0.569    1.635   -1.614   H1    57      3JD   0.000000
  1125   C6   -1.276    0.500   -1.652   Cg    57      3JD   0.340000
  1126  H62   -1.832   -0.165   -0.992   H1    57      3JD   0.000000
  1127  H61   -1.142   -0.003   -2.610   H1    57      3JD   0.000000
  1128   O6   -2.041    1.700   -1.878   Oh    57      3JD  -0.725000
  1129  H6O   -1.562    2.296   -2.457   Ho    57      3JD   0.425000
  1130   O5   -0.108    1.335    0.458   Os    57      3JD  -0.410000
  1131   O4    0.792   -1.527   -1.793   Oh    57      3JD  -0.671000
  1132  H4O    1.586   -1.842   -2.242   Ho    57      3JD   0.414000
  1133   O3    0.313   -1.966    0.876   Os    57      3JD  -0.496000
  1134   C2   -1.140   -0.370    0.777   Cg    58      3JU   0.351000
  1135   C1   -1.143   -0.190    2.321   Cg    58      3JU   0.333000
  1136  H12   -1.451   -1.117    2.806   H1    58      3JU   0.000000
  1137  H11   -0.136    0.049    2.663   H1    58      3JU   0.000000
  1138   O1   -2.035    0.873    2.732   Oh    58      3JU  -0.697000
  1139  H1O   -1.944    1.025    3.676   Ho    58      3JU   0.415000
  1140   O5   -0.658    0.951    0.081   Os    58      3JU  -0.389000
  1141   C5    0.701    0.781   -0.718   Cg    58      3JU   0.100000
  1142   H5    1.434    1.488   -0.332   H1    58      3JU   0.000000
  1143   C6    0.434    1.074   -2.203   Cg    58      3JU   0.349000
  1144  H62   -0.372    0.443   -2.574   H1    58      3JU   0.000000
  1145  H61    1.325    0.896   -2.804   H1    58      3JU   0.000000
  1146   O6    0.052    2.453   -2.321   Oh    58      3JU  -0.684000
  1147  H6O   -0.577    2.641   -1.617   Ho    58      3JU   0.411000
  1148   C4    1.191   -0.727   -0.389   Cg    58      3JU   0.284000
  1149   H4    1.999   -0.658    0.342   H1    58      3JU   0.000000
  1150   O4    1.691   -1.424   -1.548   Oh    58      3JU  -0.657000
  1151  H4O    1.061   -2.140   -1.720   Ho    58      3JU   0.410000
  1152   C3   -0.058   -1.519    0.317   Cg    58      3JU   0.223000
  1153   H3    0.290   -2.104    1.168   H1    58      3JU   0.000000
  1154   O3   -0.663   -2.424   -0.657   Os    58      3JU  -0.449000
  1155   C2    0.537    1.363    0.575   Cg    59      3PD   0.324000
  1156   C1   -0.360    2.055    1.609   Cg    59      3PD   0.286000
  1157  H12    0.195    2.243    2.529   H1    59      3PD   0.000000
  1158  H11   -0.724    3.008    1.223   H1    59      3PD   0.000000
  1159   O1   -1.484    1.214    1.902   Oh    59      3PD  -0.691000
  1160  H1O   -2.040    1.641    2.558   Ho    59      3PD   0.419000
  1161   C3    1.192   -0.064    1.019   Cg    59      3PD   0.334000
  1162   H3    0.546   -0.504    1.778   H1    59      3PD   0.000000
  1163   C4    1.122   -1.048   -0.278   Cg    59      3PD   0.282000
  1164   H4    0.887   -2.075    0.004   H1    59      3PD   0.000000
  1165   C5    0.028   -0.409   -1.296   Cg    59      3PD   0.194000
  1166   H5    0.436   -0.316   -2.305   H1    59      3PD   0.000000
  1167   C6   -1.275   -1.208   -1.344   Cg    59      3PD   0.291000
  1168  H62   -1.746   -1.236   -0.361   H1    59      3PD   0.000000
  1169  H61   -1.078   -2.231   -1.666   H1    59      3PD   0.000000
  1170   O6   -2.160   -0.584   -2.282   Oh    59      3PD  -0.695000
  1171  H6O   -1.745   -0.559   -3.147   Ho    59      3PD   0.411000
  1172   O5   -0.289    1.031   -0.729   Os    59      3PD  -0.453000
  1173   O4    2.377   -1.013   -0.977   Oh    59      3PD  -0.683000
  1174  H4O    3.071   -1.349   -0.406   Ho    59      3PD   0.421000
  1175   O3    2.509    0.042    1.594   Os    59      3PD  -0.440000
  1176   C2   -1.253    0.256    0.769   Cg    60      3PU   0.288000
  1177   C1   -1.471    1.564    1.553   Cg    60      3PU   0.365000
  1178  H12   -1.966    1.365    2.505   H1    60      3PU   0.000000
  1179  H11   -0.512    2.037    1.762   H1    60      3PU   0.000000
  1180   O1   -2.275    2.475    0.785   Oh    60      3PU  -0.687000
  1181  H1O   -2.412    3.283    1.286   Ho    60      3PU   0.418000
  1182   O5   -0.654    0.611   -0.644   Os    60      3PU  -0.480000
  1183   C5    0.648   -0.211   -0.983   Cg    60      3PU   0.369000
  1184   H5    1.439    0.477   -1.290   H1    60      3PU   0.000000
  1185   C6    0.330   -1.167   -2.133   Cg    60      3PU   0.215000
  1186  H62   -0.510   -1.813   -1.875   H1    60      3PU   0.000000
  1187  H61    1.195   -1.792   -2.355   H1    60      3PU   0.000000
  1188   O6   -0.001   -0.394   -3.293   Oh    60      3PU  -0.678000
  1189  H6O    0.734    0.181   -3.515   Ho    60      3PU   0.421000
  1190   C4    1.040   -0.985    0.389   Cg    60      3PU   0.192000
  1191   H4    1.279   -2.035    0.213   H1    60      3PU   0.000000
  1192   O4    2.203   -0.315    0.907   Oh    60      3PU  -0.711000
  1193  H4O    2.932   -0.420    0.292   Ho    60      3PU   0.438000
  1194   C3   -0.221   -0.832    1.411   Cg    60      3PU   0.334000
  1195   H3   -0.708   -1.807    1.467   H1    60      3PU   0.000000
  1196   O3    0.183   -0.478    2.748   Os    60      3PU  -0.484000
  1197   C1    0.393    0.377    2.045   Cg    61      3RD   0.445000
  1198   H1   -0.217    0.088    2.901   H2    61      3RD   0.000000
  1199   C2    0.921   -0.910    1.178   Cg    61      3RD   0.318000
  1200   H2    0.188   -1.702    1.331   H1    61      3RD   0.000000
  1201   O2    2.223   -1.454    1.559   Oh    61      3RD  -0.709000
  1202  H2O    2.440   -2.215    1.012   Ho    61      3RD   0.416000
  1203   C3    0.826   -0.482   -0.403   Cg    61      3RD   0.275000
  1204   H3    0.470   -1.316   -1.009   H1    61      3RD   0.000000
  1205   C4   -0.171    0.800   -0.492   Cg    61      3RD   0.327000
  1206   H4    0.309    1.626   -1.018   H1    61      3RD   0.000000
  1207   C5   -1.498    0.447   -1.190   Cg    61      3RD   0.195000
  1208  H52   -2.033   -0.305   -0.609   H1    61      3RD   0.000000
  1209  H51   -1.296    0.032   -2.177   H1    61      3RD   0.000000
  1210   O5   -2.339    1.607   -1.342   Oh    61      3RD  -0.667000
  1211  H5O   -1.926    2.257   -1.918   Ho    61      3RD   0.408000
  1212   O4   -0.425    1.223    1.020   Os    61      3RD  -0.513000
  1213   O3    2.132   -0.073   -0.888   Os    61      3RD  -0.495000
  1214   C1    0.120   -0.088    2.023   Cg    62      3RU   0.378000
  1215   H1    0.863    0.162    2.782   H1    62      3RU   0.000000
  1216   O4   -0.082    1.102    1.040   Os    62      3RU  -0.424000
  1217   C4    0.064    0.685   -0.484   Cg    62      3RU   0.102000
  1218   H4    0.960    1.165   -0.883   H1    62      3RU   0.000000
  1219   C5   -1.159    1.104   -1.309   Cg    62      3RU   0.338000
  1220  H52   -1.093    0.685   -2.313   H1    62      3RU   0.000000
  1221  H51   -2.075    0.740   -0.843   H1    62      3RU   0.000000
  1222   O5   -1.214    2.536   -1.409   Oh    62      3RU  -0.692000
  1223  H5O   -1.968    2.792   -1.943   Ho    62      3RU   0.415000
  1224   C3    0.274   -0.917   -0.460   Cg    62      3RU   0.289000
  1225   H3   -0.642   -1.406   -0.794   H1    62      3RU   0.000000
  1226   C2    0.552   -1.362    1.097   Cg    62      3RU   0.293000
  1227   H2   -0.022   -2.255    1.345   H1    62      3RU   0.000000
  1228   O2    1.971   -1.644    1.306   Oh    62      3RU  -0.670000
  1229  H2O    2.104   -2.000    2.191   Ho    62      3RU   0.420000
  1230   O3    1.347   -1.300   -1.346   Os    62      3RU  -0.449000
  1231   C1   -1.106    1.324   -0.817   Cg    63      3XD   0.428000
  1232   H1   -0.715    2.058   -1.521   H1    63      3XD   0.000000
  1233   C2   -0.918   -0.221   -1.322   Cg    63      3XD   0.248000
  1234   H2   -0.130   -0.230   -2.076   H1    63      3XD   0.000000
  1235   O2   -2.117   -0.799   -1.909   Oh    63      3XD  -0.657000
  1236  H2O   -2.867   -0.241   -1.661   Ho    63      3XD   0.407000
  1237   C3   -0.416   -1.085   -0.029   Cg    63      3XD   0.302000
  1238   H3   -1.271   -1.620    0.388   H1    63      3XD   0.000000
  1239   C4    0.098   -0.027    1.095   Cg    63      3XD   0.237000
  1240   H4   -0.426   -0.235    2.028   H1    63      3XD   0.000000
  1241   C5    1.614    0.003    1.381   Cg    63      3XD   0.280000
  1242  H52    1.792    0.563    2.299   H1    63      3XD   0.000000
  1243  H51    2.007   -1.004    1.522   H1    63      3XD   0.000000
  1244   O5    2.320    0.657    0.309   Oh    63      3XD  -0.678000
  1245  H5O    1.916    1.519    0.171   Ho    63      3XD   0.422000
  1246   O4   -0.362    1.398    0.553   Os    63      3XD  -0.507000
  1247   O3    0.582   -2.060   -0.411   Os    63      3XD  -0.482000
  1248   C1   -1.559   -0.354    1.168   Cg    64      3XU   0.388000
  1249   H1   -1.666   -0.175    2.237   H2    64      3XU   0.000000
  1250   O4   -1.097    0.955    0.464   Os    64      3XU  -0.427000
  1251   C4    0.327    0.835   -0.223   Cg    64      3XU   0.142000
  1252   H4    0.997    1.562    0.237   H1    64      3XU   0.000000
  1253   C5    0.208    1.147   -1.727   Cg    64      3XU   0.285000
  1254  H52   -0.482    0.451   -2.207   H1    64      3XU   0.000000
  1255  H51    1.183    1.051   -2.206   H1    64      3XU   0.000000
  1256   O5   -0.269    2.491   -1.918   Oh    64      3XU  -0.635000
  1257  H5O    0.235    3.092   -1.366   Ho    64      3XU   0.396000
  1258   C3    0.848   -0.660    0.149   Cg    64      3XU   0.224000
  1259   H3    1.676   -0.562    0.853   H1    64      3XU   0.000000
  1260   C2   -0.390   -1.453    0.867   Cg    64      3XU   0.382000
  1261   H2   -0.774   -2.214    0.187   H1    64      3XU   0.000000
  1262   O2    0.072   -2.111    2.078   Oh    64      3XU  -0.731000
  1263  H2O   -0.633   -2.671    2.421   Ho    64      3XU   0.420000
  1264   O3    1.324   -1.384   -1.014   Os    64      3XU  -0.444000
  1265   C2    0.643    0.435    1.328   Cg    65      4BD   0.241000
  1266   C1   -0.209    0.014    2.548   Cg    65      4BD   0.313000
  1267  H12    0.420   -0.451    3.307   H1    65      4BD   0.000000
  1268  H11   -0.682    0.892    2.990   H1    65      4BD   0.000000
  1269   O1   -1.236   -0.923    2.159   Oh    65      4BD  -0.668000
  1270  H1O   -1.895   -0.972    2.857   Ho    65      4BD   0.414000
  1271   C3    1.216   -0.808    0.424   Cg    65      4BD   0.440000
  1272   H3    0.566   -1.671    0.572   H1    65      4BD   0.000000
  1273   O3    2.573   -1.236    0.721   Oh    65      4BD  -0.732000
  1274  H3O    2.561   -2.162    0.971   Ho    65      4BD   0.404000
  1275   C4    1.084   -0.350   -1.141   Cg    65      4BD   0.225000
  1276   H4    2.053    0.021   -1.478   H1    65      4BD   0.000000
  1277   C5    0.040    0.895   -1.197   Cg    65      4BD   0.271000
  1278   H5    0.516    1.725   -1.721   H1    65      4BD   0.000000
  1279   C6   -1.322    0.587   -1.854   Cg    65      4BD   0.281000
  1280  H62   -1.884   -0.114   -1.236   H1    65      4BD   0.000000
  1281  H61   -1.173    0.133   -2.834   H1    65      4BD   0.000000
  1282   O6   -2.093    1.793   -2.030   Oh    65      4BD  -0.679000
  1283  H6O   -1.692    2.348   -2.702   Ho    65      4BD   0.411000
  1284   O5   -0.185    1.302    0.321   Os    65      4BD  -0.452000
  1285   O4    0.700   -1.459   -2.005   Os    65      4BD  -0.469000
  1286   C2   -1.085   -0.342    0.718   Cg    66      4BU   0.247000
  1287   C1   -1.037   -0.117    2.254   Cg    66      4BU   0.299000
  1288  H12   -1.367   -1.014    2.780   H1    66      4BU   0.000000
  1289  H11   -0.011    0.095    2.560   H1    66      4BU   0.000000
  1290   O1   -1.873    0.992    2.652   Oh    66      4BU  -0.627000
  1291  H1O   -1.733    1.178    3.584   Ho    66      4BU   0.382000
  1292   O5   -0.622    0.966   -0.012   Os    66      4BU  -0.385000
  1293   C5    0.653    0.767   -0.927   Cg    66      4BU   0.210000
  1294   H5    1.439    1.443   -0.587   H1    66      4BU   0.000000
  1295   C6    0.305    1.095   -2.392   Cg    66      4BU   0.332000
  1296  H62   -0.508    0.457   -2.739   H1    66      4BU   0.000000
  1297  H61    1.174    0.920   -3.027   H1    66      4BU   0.000000
  1298   O6   -0.087    2.476   -2.526   Oh    66      4BU  -0.701000
  1299  H6O    0.583    3.048   -2.146   Ho    66      4BU   0.409000
  1300   C4    1.121   -0.765   -0.659   Cg    66      4BU   0.283000
  1301   H4    2.017   -0.731   -0.038   H1    66      4BU   0.000000
  1302   C3   -0.075   -1.508    0.176   Cg    66      4BU   0.382000
  1303   H3   -0.619   -2.156   -0.513   H1    66      4BU   0.000000
  1304   O3    0.473   -2.345    1.233   Oh    66      4BU  -0.742000
  1305  H3O   -0.198   -2.984    1.494   Ho    66      4BU   0.426000
  1306   O4    1.447   -1.474   -1.885   Os    66      4BU  -0.515000
  1307   C2    0.758    0.434    1.377   Cg    67      4CD   0.284000
  1308   C1   -0.076    0.140    2.657   Cg    67      4CD   0.370000
  1309  H12    0.516   -0.457    3.352   H1    67      4CD   0.000000
  1310  H11   -0.343    1.073    3.156   H1    67      4CD   0.000000
  1311   O1   -1.282   -0.583    2.342   Oh    67      4CD  -0.688000
  1312  H1O   -1.016   -1.327    1.780   Ho    67      4CD   0.414000
  1313   C3    1.219   -0.848    0.468   Cg    67      4CD   0.282000
  1314   H3    2.256   -1.120    0.673   H1    67      4CD   0.000000
  1315   O3    0.388   -2.022    0.719   Oh    67      4CD  -0.716000
  1316  H3O    0.818   -2.803    0.350   Ho    67      4CD   0.432000
  1317   C4    1.020   -0.404   -1.096   Cg    67      4CD   0.332000
  1318   H4    0.553   -1.203   -1.675   H1    67      4CD   0.000000
  1319   C5    0.119    0.943   -1.124   Cg    67      4CD   0.309000
  1320   H5    0.619    1.726   -1.697   H1    67      4CD   0.000000
  1321   C6   -1.278    0.676   -1.709   Cg    67      4CD   0.265000
  1322  H62   -1.857    0.058   -1.022   H1    67      4CD   0.000000
  1323  H61   -1.189    0.139   -2.653   H1    67      4CD   0.000000
  1324   O6   -1.986    1.908   -1.953   Oh    67      4CD  -0.664000
  1325  H6O   -1.570    2.408   -2.659   Ho    67      4CD   0.412000
  1326   O5    0.009    1.391    0.392   Os    67      4CD  -0.498000
  1327   O4    2.323   -0.130   -1.678   Os    67      4CD  -0.534000
  1328   C2   -1.131    0.222    0.747   Cg    68      4CU   0.239000
  1329   C1   -1.176    1.502    1.598   Cg    68      4CU   0.287000
  1330  H12   -1.566    1.287    2.594   H1    68      4CU   0.000000
  1331  H11   -0.171    1.911    1.708   H1    68      4CU   0.000000
  1332   O1   -2.007    2.490    0.966   Oh    68      4CU  -0.624000
  1333  H1O   -2.027    3.284    1.505   Ho    68      4CU   0.401000
  1334   O5   -0.664    0.604   -0.708   Os    68      4CU  -0.449000
  1335   C5    0.744   -0.003   -1.076   Cg    68      4CU   0.310000
  1336   H5    1.432    0.806   -1.329   H1    68      4CU   0.000000
  1337   C6    0.570   -0.929   -2.281   Cg    68      4CU   0.272000
  1338  H62   -0.176   -1.697   -2.071   H1    68      4CU   0.000000
  1339  H61    1.515   -1.417   -2.522   H1    68      4CU   0.000000
  1340   O6    0.146   -0.145   -3.403   Oh    68      4CU  -0.652000
  1341  H6O    0.804    0.529   -3.590   Ho    68      4CU   0.397000
  1342   C4    1.237   -0.791    0.253   Cg    68      4CU   0.293000
  1343   H4    1.625   -1.786    0.023   H1    68      4CU   0.000000
  1344   C3   -0.003   -0.825    1.302   Cg    68      4CU   0.333000
  1345   H3    0.308   -0.587    2.320   H1    68      4CU   0.000000
  1346   O3   -0.486   -2.180    1.267   Oh    68      4CU  -0.691000
  1347  H3O   -1.255   -2.260    1.837   Ho    68      4CU   0.410000
  1348   O4    2.279   -0.015    0.860   Os    68      4CU  -0.526000
  1349   C2    0.734    0.494    1.401   Cg    69      4JD   0.192000
  1350   C1   -0.114    0.224    2.675   Cg    69      4JD   0.389000
  1351  H12    0.468   -0.362    3.388   H1    69      4JD   0.000000
  1352  H11   -0.389    1.165    3.153   H1    69      4JD   0.000000
  1353   O1   -1.315   -0.501    2.355   Oh    69      4JD  -0.654000
  1354  H1O   -1.034   -1.259    1.821   Ho    69      4JD   0.380000
  1355   C3    1.267   -0.807    0.563   Cg    69      4JD   0.393000
  1356   H3    2.282   -1.094    0.843   H1    69      4JD   0.000000
  1357   O3    0.378   -1.940    0.769   Oh    69      4JD  -0.748000
  1358  H3O    0.274   -2.364   -0.096   Ho    69      4JD   0.446000
  1359   C4    1.189   -0.385   -1.023   Cg    69      4JD   0.233000
  1360   H4    2.174   -0.018   -1.311   H1    69      4JD   0.000000
  1361   C5    0.161    0.868   -1.141   Cg    69      4JD   0.190000
  1362   H5    0.634    1.661   -1.721   H1    69      4JD   0.000000
  1363   C6   -1.210    0.526   -1.760   Cg    69      4JD   0.340000
  1364  H62   -1.767   -0.139   -1.099   H1    69      4JD   0.000000
  1365  H61   -1.076    0.023   -2.718   H1    69      4JD   0.000000
  1366   O6   -1.976    1.726   -1.986   Oh    69      4JD  -0.725000
  1367  H6O   -1.496    2.322   -2.564   Ho    69      4JD   0.425000
  1368   O5   -0.043    1.361    0.351   Os    69      4JD  -0.410000
  1369   O4    0.858   -1.501   -1.901   Os    69      4JD  -0.451000
  1370   C2   -1.012   -0.366    0.726   Cg    70      4JU   0.351000
  1371   C1   -1.015   -0.185    2.270   Cg    70      4JU   0.333000
  1372  H12   -1.324   -1.112    2.755   H1    70      4JU   0.000000
  1373  H11   -0.008    0.053    2.612   H1    70      4JU   0.000000
  1374   O1   -1.908    0.878    2.681   Oh    70      4JU  -0.697000
  1375  H1O   -1.816    1.030    3.626   Ho    70      4JU   0.415000
  1376   O5   -0.530    0.955    0.030   Os    70      4JU  -0.389000
  1377   C5    0.828    0.785   -0.769   Cg    70      4JU   0.100000
  1378   H5    1.561    1.493   -0.383   H1    70      4JU   0.000000
  1379   C6    0.561    1.079   -2.253   Cg    70      4JU   0.349000
  1380  H62   -0.245    0.448   -2.625   H1    70      4JU   0.000000
  1381  H61    1.453    0.901   -2.854   H1    70      4JU   0.000000
  1382   O6    0.179    2.457   -2.372   Oh    70      4JU  -0.684000
  1383  H6O   -0.449    2.646   -1.668   Ho    70      4JU   0.411000
  1384   C4    1.319   -0.722   -0.439   Cg    70      4JU   0.284000
  1385   H4    2.126   -0.653    0.291   H1    70      4JU   0.000000
  1386   C3    0.069   -1.514    0.266   Cg    70      4JU   0.223000
  1387   H3    0.417   -2.099    1.117   H1    70      4JU   0.000000
  1388   O3   -0.536   -2.419   -0.707   Oh    70      4JU  -0.671000
  1389  H3O   -1.490   -2.237   -0.704   Ho    70      4JU   0.416000
  1390   O4    1.818   -1.419   -1.599   Os    70      4JU  -0.441000
  1391   C2    0.549    1.339    0.468   Cg    71      4PD   0.324000
  1392   C1   -0.348    2.030    1.501   Cg    71      4PD   0.286000
  1393  H12    0.207    2.219    2.422   H1    71      4PD   0.000000
  1394  H11   -0.712    2.984    1.116   H1    71      4PD   0.000000
  1395   O1   -1.472    1.189    1.795   Oh    71      4PD  -0.691000
  1396  H1O   -2.028    1.616    2.451   Ho    71      4PD   0.419000
  1397   C3    1.204   -0.089    0.911   Cg    71      4PD   0.334000
  1398   H3    0.558   -0.529    1.671   H1    71      4PD   0.000000
  1399   O3    2.521    0.017    1.487   Oh    71      4PD  -0.661000
  1400  H3O    2.832   -0.856    1.737   Ho    71      4PD   0.415000
  1401   C4    1.134   -1.072   -0.385   Cg    71      4PD   0.282000
  1402   H4    0.899   -2.100   -0.103   H1    71      4PD   0.000000
  1403   C5    0.040   -0.433   -1.404   Cg    71      4PD   0.194000
  1404   H5    0.448   -0.341   -2.412   H1    71      4PD   0.000000
  1405   C6   -1.263   -1.233   -1.452   Cg    71      4PD   0.291000
  1406  H62   -1.735   -1.261   -0.468   H1    71      4PD   0.000000
  1407  H61   -1.066   -2.256   -1.773   H1    71      4PD   0.000000
  1408   O6   -2.149   -0.608   -2.389   Oh    71      4PD  -0.695000
  1409  H6O   -1.733   -0.584   -3.254   Ho    71      4PD   0.411000
  1410   O5   -0.277    1.007   -0.836   Os    71      4PD  -0.453000
  1411   O4    2.389   -1.038   -1.084   Os    71      4PD  -0.456000
  1412   C2   -1.152    0.289    0.637   Cg    72      4PU   0.288000
  1413   C1   -1.370    1.598    1.421   Cg    72      4PU   0.365000
  1414  H12   -1.865    1.398    2.373   H1    72      4PU   0.000000
  1415  H11   -0.411    2.071    1.629   H1    72      4PU   0.000000
  1416   O1   -2.174    2.509    0.652   Oh    72      4PU  -0.687000
  1417  H1O   -2.311    3.316    1.153   Ho    72      4PU   0.418000
  1418   O5   -0.553    0.645   -0.777   Os    72      4PU  -0.480000
  1419   C5    0.749   -0.177   -1.115   Cg    72      4PU   0.369000
  1420   H5    1.540    0.511   -1.422   H1    72      4PU   0.000000
  1421   C6    0.431   -1.133   -2.265   Cg    72      4PU   0.215000
  1422  H62   -0.409   -1.779   -2.007   H1    72      4PU   0.000000
  1423  H61    1.296   -1.758   -2.487   H1    72      4PU   0.000000
  1424   O6    0.100   -0.360   -3.425   Oh    72      4PU  -0.678000
  1425  H6O    0.835    0.215   -3.648   Ho    72      4PU   0.421000
  1426   C4    1.141   -0.951    0.256   Cg    72      4PU   0.192000
  1427   H4    1.380   -2.001    0.081   H1    72      4PU   0.000000
  1428   C3   -0.120   -0.799    1.279   Cg    72      4PU   0.334000
  1429   H3   -0.607   -1.774    1.335   H1    72      4PU   0.000000
  1430   O3    0.284   -0.445    2.616   Oh    72      4PU  -0.714000
  1431  H3O    0.913   -1.092    2.942   Ho    72      4PU   0.424000
  1432   O4    2.304   -0.282    0.774   Os    72      4PU  -0.467000
  1433   C2    0.493    0.645    1.301   Cg    73      6BD   0.241000
  1434   C1   -0.359    0.224    2.520   Cg    73      6BD   0.313000
  1435  H12    0.270   -0.241    3.279   H1    73      6BD   0.000000
  1436  H11   -0.832    1.102    2.963   H1    73      6BD   0.000000
  1437   O1   -1.385   -0.713    2.132   Oh    73      6BD  -0.668000
  1438  H1O   -2.044   -0.763    2.829   Ho    73      6BD   0.414000
  1439   C3    1.066   -0.599    0.397   Cg    73      6BD   0.440000
  1440   H3    0.416   -1.461    0.544   H1    73      6BD   0.000000
  1441   O3    2.423   -1.027    0.694   Oh    73      6BD  -0.732000
  1442  H3O    2.411   -1.952    0.944   Ho    73      6BD   0.404000
  1443   C4    0.934   -0.141   -1.168   Cg    73      6BD   0.225000
  1444   H4    1.903    0.230   -1.505   H1    73      6BD   0.000000
  1445   O4    0.551   -1.250   -2.032   Oh    73      6BD  -0.710000
  1446  H4O    1.304   -1.840   -2.155   Ho    73      6BD   0.435000
  1447   C5   -0.110    1.104   -1.224   Cg    73      6BD   0.271000
  1448   H5    0.366    1.935   -1.748   H1    73      6BD   0.000000
  1449   O5   -0.335    1.511    0.293   Os    73      6BD  -0.452000
  1450   C6   -1.472    0.796   -1.882   Cg    73      6BD   0.281000
  1451  H62   -2.034    0.095   -1.263   H1    73      6BD   0.000000
  1452  H61   -1.323    0.342   -2.862   H1    73      6BD   0.000000
  1453   O6   -2.243    2.003   -2.057   Os    73      6BD  -0.462000
  1454   C2   -1.145   -0.086    0.695   Cg    74      6BU   0.247000
  1455   C1   -1.097    0.139    2.231   Cg    74      6BU   0.299000
  1456  H12   -1.427   -0.759    2.757   H1    74      6BU   0.000000
  1457  H11   -0.071    0.351    2.537   H1    74      6BU   0.000000
  1458   O1   -1.933    1.247    2.630   Oh    74      6BU  -0.627000
  1459  H1O   -1.793    1.434    3.561   Ho    74      6BU   0.382000
  1460   O5   -0.682    1.222   -0.034   Os    74      6BU  -0.385000
  1461   C5    0.593    1.023   -0.950   Cg    74      6BU   0.210000
  1462   H5    1.379    1.699   -0.609   H1    74      6BU   0.000000
  1463   C4    1.061   -0.509   -0.682   Cg    74      6BU   0.283000
  1464   H4    1.957   -0.476   -0.060   H1    74      6BU   0.000000
  1465   O4    1.387   -1.218   -1.908   Oh    74      6BU  -0.755000
  1466  H4O    1.783   -2.069   -1.690   Ho    74      6BU   0.434000
  1467   C3   -0.135   -1.252    0.153   Cg    74      6BU   0.382000
  1468   H3   -0.679   -1.900   -0.536   H1    74      6BU   0.000000
  1469   O3    0.413   -2.089    1.210   Oh    74      6BU  -0.742000
  1470  H3O   -0.258   -2.728    1.471   Ho    74      6BU   0.426000
  1471   C6    0.245    1.351   -2.415   Cg    74      6BU   0.332000
  1472  H62   -0.568    0.713   -2.762   H1    74      6BU   0.000000
  1473  H61    1.114    1.176   -3.050   H1    74      6BU   0.000000
  1474   O6   -0.147    2.732   -2.549   Os    74      6BU  -0.486000
  1475   C2    0.549    0.526    1.303   Cg    75      6CD   0.284000
  1476   C1   -0.286    0.233    2.584   Cg    75      6CD   0.370000
  1477  H12    0.306   -0.365    3.278   H1    75      6CD   0.000000
  1478  H11   -0.552    1.166    3.082   H1    75      6CD   0.000000
  1479   O1   -1.492   -0.490    2.269   Oh    75      6CD  -0.688000
  1480  H1O   -1.225   -1.234    1.706   Ho    75      6CD   0.414000
  1481   C3    1.010   -0.755    0.394   Cg    75      6CD   0.282000
  1482   H3    2.047   -1.027    0.599   H1    75      6CD   0.000000
  1483   O3    0.179   -1.929    0.645   Oh    75      6CD  -0.716000
  1484  H3O    0.609   -2.710    0.276   Ho    75      6CD   0.432000
  1485   C4    0.811   -0.312   -1.170   Cg    75      6CD   0.332000
  1486   H4    0.343   -1.110   -1.748   H1    75      6CD   0.000000
  1487   O4    2.113   -0.037   -1.752   Oh    75      6CD  -0.784000
  1488  H4O    2.616    0.559   -1.183   Ho    75      6CD   0.444000
  1489   C5   -0.090    1.036   -1.197   Cg    75      6CD   0.309000
  1490   H5    0.410    1.819   -1.771   H1    75      6CD   0.000000
  1491   O5   -0.200    1.483    0.318   Os    75      6CD  -0.498000
  1492   C6   -1.487    0.768   -1.783   Cg    75      6CD   0.265000
  1493  H62   -2.067    0.151   -1.096   H1    75      6CD   0.000000
  1494  H61   -1.398    0.231   -2.727   H1    75      6CD   0.000000
  1495   O6   -2.196    2.000   -2.027   Os    75      6CD  -0.446000
  1496   C2   -1.237    0.245    0.564   Cg    76      6CU   0.239000
  1497   C1   -1.282    1.524    1.414   Cg    76      6CU   0.287000
  1498  H12   -1.671    1.310    2.411   H1    76      6CU   0.000000
  1499  H11   -0.277    1.934    1.525   H1    76      6CU   0.000000
  1500   O1   -2.112    2.513    0.783   Oh    76      6CU  -0.624000
  1501  H1O   -2.132    3.306    1.322   Ho    76      6CU   0.401000
  1502   O5   -0.770    0.627   -0.891   Os    76      6CU  -0.449000
  1503   C5    0.638    0.020   -1.259   Cg    76      6CU   0.310000
  1504   H5    1.326    0.829   -1.512   H1    76      6CU   0.000000
  1505   C4    1.131   -0.768    0.070   Cg    76      6CU   0.293000
  1506   H4    1.519   -1.763   -0.160   H1    76      6CU   0.000000
  1507   O4    2.173    0.008    0.677   Oh    76      6CU  -0.763000
  1508  H4O    2.918    0.071    0.074   Ho    76      6CU   0.431000
  1509   C3   -0.109   -0.802    1.119   Cg    76      6CU   0.333000
  1510   H3    0.203   -0.564    2.137   H1    76      6CU   0.000000
  1511   O3   -0.591   -2.157    1.084   Oh    76      6CU  -0.691000
  1512  H3O   -1.360   -2.237    1.653   Ho    76      6CU   0.410000
  1513   C6    0.465   -0.906   -2.464   Cg    76      6CU   0.272000
  1514  H62   -0.281   -1.674   -2.254   H1    76      6CU   0.000000
  1515  H61    1.409   -1.394   -2.705   H1    76      6CU   0.000000
  1516   O6    0.041   -0.122   -3.587   Os    76      6CU  -0.449000
  1517   C2    0.584    0.691    1.391   Cg    77      6JD   0.192000
  1518   C1   -0.264    0.421    2.665   Cg    77      6JD   0.389000
  1519  H12    0.318   -0.164    3.378   H1    77      6JD   0.000000
  1520  H11   -0.538    1.363    3.142   H1    77      6JD   0.000000
  1521   O1   -1.464   -0.304    2.345   Oh    77      6JD  -0.654000
  1522  H1O   -1.184   -1.062    1.811   Ho    77      6JD   0.380000
  1523   C3    1.117   -0.609    0.552   Cg    77      6JD   0.393000
  1524   H3    2.132   -0.897    0.832   H1    77      6JD   0.000000
  1525   O3    0.228   -1.743    0.758   Oh    77      6JD  -0.748000
  1526  H3O    0.124   -2.167   -0.107   Ho    77      6JD   0.446000
  1527   C4    1.039   -0.188   -1.033   Cg    77      6JD   0.233000
  1528   H4    2.024    0.179   -1.321   H1    77      6JD   0.000000
  1529   O4    0.708   -1.304   -1.911   Oh    77      6JD  -0.671000
  1530  H4O    1.502   -1.619   -2.360   Ho    77      6JD   0.414000
  1531   C5    0.011    1.065   -1.152   Cg    77      6JD   0.190000
  1532   H5    0.484    1.858   -1.731   H1    77      6JD   0.000000
  1533   O5   -0.193    1.558    0.341   Os    77      6JD  -0.410000
  1534   C6   -1.360    0.723   -1.770   Cg    77      6JD   0.340000
  1535  H62   -1.917    0.058   -1.109   H1    77      6JD   0.000000
  1536  H61   -1.226    0.220   -2.728   H1    77      6JD   0.000000
  1537   O6   -2.125    1.923   -1.996   Os    77      6JD  -0.494000
  1538   C2   -1.090   -0.138    0.731   Cg    78      6JU   0.351000
  1539   C1   -1.093    0.042    2.275   Cg    78      6JU   0.333000
  1540  H12   -1.402   -0.884    2.760   H1    78      6JU   0.000000
  1541  H11   -0.086    0.281    2.617   H1    78      6JU   0.000000
  1542   O1   -1.986    1.106    2.686   Oh    78      6JU  -0.697000
  1543  H1O   -1.894    1.258    3.630   Ho    78      6JU   0.415000
  1544   O5   -0.608    1.183    0.035   Os    78      6JU  -0.389000
  1545   C5    0.750    1.013   -0.764   Cg    78      6JU   0.100000
  1546   H5    1.483    1.720   -0.378   H1    78      6JU   0.000000
  1547   C4    1.241   -0.494   -0.434   Cg    78      6JU   0.284000
  1548   H4    2.048   -0.426    0.296   H1    78      6JU   0.000000
  1549   O4    1.740   -1.191   -1.594   Oh    78      6JU  -0.657000
  1550  H4O    1.111   -1.908   -1.766   Ho    78      6JU   0.410000
  1551   C3   -0.009   -1.286    0.271   Cg    78      6JU   0.223000
  1552   H3    0.339   -1.872    1.122   H1    78      6JU   0.000000
  1553   O3   -0.614   -2.191   -0.702   Oh    78      6JU  -0.671000
  1554  H3O   -1.568   -2.010   -0.699   Ho    78      6JU   0.416000
  1555   C6    0.483    1.307   -2.248   Cg    78      6JU   0.349000
  1556  H62   -0.323    0.675   -2.620   H1    78      6JU   0.000000
  1557  H61    1.375    1.129   -2.850   H1    78      6JU   0.000000
  1558   O6    0.101    2.685   -2.367   Os    78      6JU  -0.467000
  1559   C2    0.319    1.376    0.337   Cg    79      6PD   0.324000
  1560   C1   -0.577    2.068    1.371   Cg    79      6PD   0.286000
  1561  H12   -0.022    2.256    2.291   H1    79      6PD   0.000000
  1562  H11   -0.941    3.021    0.986   H1    79      6PD   0.000000
  1563   O1   -1.701    1.227    1.665   Oh    79      6PD  -0.691000
  1564  H1O   -2.258    1.654    2.320   Ho    79      6PD   0.419000
  1565   C3    0.975   -0.051    0.781   Cg    79      6PD   0.334000
  1566   H3    0.328   -0.491    1.540   H1    79      6PD   0.000000
  1567   O3    2.292    0.055    1.357   Oh    79      6PD  -0.661000
  1568  H3O    2.603   -0.818    1.607   Ho    79      6PD   0.415000
  1569   C4    0.905   -1.035   -0.516   Cg    79      6PD   0.282000
  1570   H4    0.670   -2.062   -0.233   H1    79      6PD   0.000000
  1571   O4    2.160   -1.000   -1.215   Oh    79      6PD  -0.683000
  1572  H4O    2.854   -1.336   -0.643   Ho    79      6PD   0.421000
  1573   C5   -0.190   -0.396   -1.534   Cg    79      6PD   0.194000
  1574   H5    0.219   -0.303   -2.543   H1    79      6PD   0.000000
  1575   O5   -0.506    1.044   -0.966   Os    79      6PD  -0.453000
  1576   C6   -1.492   -1.195   -1.582   Cg    79      6PD   0.291000
  1577  H62   -1.964   -1.223   -0.599   H1    79      6PD   0.000000
  1578  H61   -1.296   -2.218   -1.904   H1    79      6PD   0.000000
  1579   O6   -2.378   -0.571   -2.520   Os    79      6PD  -0.478000
  1580   C2   -1.257    0.318    0.455   Cg    80      6PU   0.288000
  1581   C1   -1.475    1.627    1.240   Cg    80      6PU   0.365000
  1582  H12   -1.970    1.427    2.191   H1    80      6PU   0.000000
  1583  H11   -0.515    2.099    1.448   H1    80      6PU   0.000000
  1584   O1   -2.278    2.537    0.471   Oh    80      6PU  -0.687000
  1585  H1O   -2.415    3.345    0.972   Ho    80      6PU   0.418000
  1586   O5   -0.657    0.673   -0.958   Os    80      6PU  -0.480000
  1587   C5    0.644   -0.148   -1.296   Cg    80      6PU   0.369000
  1588   H5    1.435    0.539   -1.604   H1    80      6PU   0.000000
  1589   C4    1.037   -0.923    0.075   Cg    80      6PU   0.192000
  1590   H4    1.275   -1.973   -0.101   H1    80      6PU   0.000000
  1591   O4    2.199   -0.253    0.593   Oh    80      6PU  -0.711000
  1592  H4O    2.929   -0.358   -0.022   Ho    80      6PU   0.438000
  1593   C3   -0.225   -0.770    1.097   Cg    80      6PU   0.334000
  1594   H3   -0.711   -1.745    1.154   H1    80      6PU   0.000000
  1595   O3    0.179   -0.416    2.435   Oh    80      6PU  -0.714000
  1596  H3O    0.809   -1.063    2.761   Ho    80      6PU   0.424000
  1597   C6    0.326   -1.105   -2.446   Cg    80      6PU   0.215000
  1598  H62   -0.514   -1.751   -2.189   H1    80      6PU   0.000000
  1599  H61    1.191   -1.730   -2.668   H1    80      6PU   0.000000
  1600   O6   -0.005   -0.332   -3.607   Os    80      6PU  -0.451000
  1601   C2    0.688    0.445    1.237   Cg    81      QBD   0.241000
  1602   C1   -0.163    0.024    2.457   Cg    81      QBD   0.313000
  1603  H12    0.466   -0.441    3.215   H1    81      QBD   0.000000
  1604  H11   -0.636    0.902    2.899   H1    81      QBD   0.000000
  1605   O1   -1.190   -0.913    2.068   Oh    81      QBD  -0.668000
  1606  H1O   -1.849   -0.963    2.766   Ho    81      QBD   0.414000
  1607   C3    1.262   -0.799    0.333   Cg    81      QBD   0.440000
  1608   H3    0.611   -1.661    0.481   H1    81      QBD   0.000000
  1609   C4    1.130   -0.340   -1.232   Cg    81      QBD   0.225000
  1610   H4    2.099    0.030   -1.569   H1    81      QBD   0.000000
  1611   C5    0.086    0.905   -1.288   Cg    81      QBD   0.271000
  1612   H5    0.561    1.735   -1.812   H1    81      QBD   0.000000
  1613   C6   -1.276    0.597   -1.945   Cg    81      QBD   0.281000
  1614  H62   -1.839   -0.104   -1.327   H1    81      QBD   0.000000
  1615  H61   -1.128    0.143   -2.925   H1    81      QBD   0.000000
  1616   O6   -2.048    1.803   -2.121   Os    81      QBD  -0.462000
  1617   O5   -0.139    1.312    0.229   Os    81      QBD  -0.452000
  1618   O4    0.746   -1.449   -2.096   Os    81      QBD  -0.469000
  1619   O3    2.618   -1.226    0.630   Os    81      QBD  -0.522000
  1620   C2   -1.065   -0.339    0.684   Cg    82      QBU   0.247000
  1621   C1   -1.016   -0.114    2.220   Cg    82      QBU   0.299000
  1622  H12   -1.346   -1.011    2.745   H1    82      QBU   0.000000
  1623  H11    0.009    0.099    2.525   H1    82      QBU   0.000000
  1624   O1   -1.853    0.995    2.618   Oh    82      QBU  -0.627000
  1625  H1O   -1.713    1.181    3.549   Ho    82      QBU   0.382000
  1626   O5   -0.601    0.970   -0.046   Os    82      QBU  -0.385000
  1627   C5    0.673    0.770   -0.961   Cg    82      QBU   0.210000
  1628   H5    1.460    1.446   -0.621   H1    82      QBU   0.000000
  1629   C6    0.326    1.098   -2.426   Cg    82      QBU   0.332000
  1630  H62   -0.487    0.461   -2.774   H1    82      QBU   0.000000
  1631  H61    1.194    0.923   -3.061   H1    82      QBU   0.000000
  1632   O6   -0.066    2.480   -2.560   Os    82      QBU  -0.486000
  1633   C4    1.141   -0.761   -0.693   Cg    82      QBU   0.283000
  1634   H4    2.037   -0.728   -0.072   H1    82      QBU   0.000000
  1635   O4    1.467   -1.470   -1.919   Os    82      QBU  -0.515000
  1636   C3   -0.055   -1.505    0.141   Cg    82      QBU   0.382000
  1637   H3   -0.598   -2.153   -0.548   H1    82      QBU   0.000000
  1638   O3    0.493   -2.341    1.198   Os    82      QBU  -0.510000
  1639   C2    0.718    0.413    1.256   Cg    83      QCD   0.284000
  1640   C1   -0.116    0.120    2.536   Cg    83      QCD   0.370000
  1641  H12    0.476   -0.478    3.231   H1    83      QCD   0.000000
  1642  H11   -0.383    1.053    3.034   H1    83      QCD   0.000000
  1643   O1   -1.322   -0.604    2.221   Oh    83      QCD  -0.688000
  1644  H1O   -1.056   -1.348    1.659   Ho    83      QCD   0.414000
  1645   C3    1.180   -0.869    0.346   Cg    83      QCD   0.282000
  1646   H3    2.216   -1.141    0.551   H1    83      QCD   0.000000
  1647   C4    0.980   -0.425   -1.218   Cg    83      QCD   0.332000
  1648   H4    0.513   -1.224   -1.796   H1    83      QCD   0.000000
  1649   C5    0.080    0.922   -1.245   Cg    83      QCD   0.309000
  1650   H5    0.579    1.706   -1.819   H1    83      QCD   0.000000
  1651   C6   -1.317    0.655   -1.831   Cg    83      QCD   0.265000
  1652  H62   -1.897    0.037   -1.143   H1    83      QCD   0.000000
  1653  H61   -1.228    0.118   -2.775   H1    83      QCD   0.000000
  1654   O6   -2.026    1.887   -2.075   Os    83      QCD  -0.446000
  1655   O5   -0.031    1.370    0.270   Os    83      QCD  -0.498000
  1656   O4    2.283   -0.151   -1.799   Os    83      QCD  -0.534000
  1657   O3    0.349   -2.042    0.598   Os    83      QCD  -0.478000
  1658   C2   -1.155    0.131    0.655   Cg    84      QCU   0.239000
  1659   C1   -1.200    1.410    1.505   Cg    84      QCU   0.287000
  1660  H12   -1.589    1.196    2.502   H1    84      QCU   0.000000
  1661  H11   -0.195    1.820    1.616   H1    84      QCU   0.000000
  1662   O1   -2.030    2.399    0.874   Oh    84      QCU  -0.624000
  1663  H1O   -2.050    3.192    1.413   Ho    84      QCU   0.401000
  1664   O5   -0.688    0.513   -0.800   Os    84      QCU  -0.449000
  1665   C5    0.720   -0.094   -1.168   Cg    84      QCU   0.310000
  1666   H5    1.408    0.715   -1.421   H1    84      QCU   0.000000
  1667   C6    0.547   -1.020   -2.373   Cg    84      QCU   0.272000
  1668  H62   -0.199   -1.788   -2.163   H1    84      QCU   0.000000
  1669  H61    1.491   -1.508   -2.614   H1    84      QCU   0.000000
  1670   O6    0.123   -0.236   -3.496   Os    84      QCU  -0.449000
  1671   C4    1.213   -0.882    0.161   Cg    84      QCU   0.293000
  1672   H4    1.601   -1.877   -0.070   H1    84      QCU   0.000000
  1673   O4    2.255   -0.106    0.768   Os    84      QCU  -0.526000
  1674   C3   -0.027   -0.916    1.209   Cg    84      QCU   0.333000
  1675   H3    0.285   -0.678    2.228   H1    84      QCU   0.000000
  1676   O3   -0.509   -2.271    1.175   Os    84      QCU  -0.475000
  1677   C2    0.669    0.492    1.261   Cg    85      QJD   0.192000
  1678   C1   -0.179    0.221    2.535   Cg    85      QJD   0.389000
  1679  H12    0.404   -0.364    3.248   H1    85      QJD   0.000000
  1680  H11   -0.453    1.163    3.012   H1    85      QJD   0.000000
  1681   O1   -1.379   -0.503    2.215   Oh    85      QJD  -0.654000
  1682  H1O   -1.099   -1.262    1.681   Ho    85      QJD   0.380000
  1683   C3    1.203   -0.809    0.422   Cg    85      QJD   0.393000
  1684   H3    2.217   -1.096    0.703   H1    85      QJD   0.000000
  1685   C4    1.125   -0.387   -1.163   Cg    85      QJD   0.233000
  1686   H4    2.110   -0.021   -1.451   H1    85      QJD   0.000000
  1687   C5    0.096    0.865   -1.282   Cg    85      QJD   0.190000
  1688   H5    0.570    1.659   -1.861   H1    85      QJD   0.000000
  1689   C6   -1.275    0.524   -1.900   Cg    85      QJD   0.340000
  1690  H62   -1.831   -0.141   -1.239   H1    85      QJD   0.000000
  1691  H61   -1.140    0.021   -2.858   H1    85      QJD   0.000000
  1692   O6   -2.040    1.723   -2.126   Os    85      QJD  -0.494000
  1693   O5   -0.107    1.359    0.211   Os    85      QJD  -0.410000
  1694   O4    0.794   -1.503   -2.041   Os    85      QJD  -0.451000
  1695   O3    0.314   -1.942    0.629   Os    85      QJD  -0.496000
  1696   C2   -1.114   -0.344    0.602   Cg    86      QJU   0.351000
  1697   C1   -1.117   -0.164    2.145   Cg    86      QJU   0.333000
  1698  H12   -1.426   -1.090    2.630   H1    86      QJU   0.000000
  1699  H11   -0.110    0.075    2.487   H1    86      QJU   0.000000
  1700   O1   -2.010    0.900    2.556   Oh    86      QJU  -0.697000
  1701  H1O   -1.918    1.051    3.501   Ho    86      QJU   0.415000
  1702   O5   -0.632    0.977   -0.095   Os    86      QJU  -0.389000
  1703   C5    0.726    0.807   -0.893   Cg    86      QJU   0.100000
  1704   H5    1.459    1.514   -0.508   H1    86      QJU   0.000000
  1705   C6    0.459    1.101   -2.378   Cg    86      QJU   0.349000
  1706  H62   -0.347    0.469   -2.750   H1    86      QJU   0.000000
  1707  H61    1.351    0.922   -2.979   H1    86      QJU   0.000000
  1708   O6    0.077    2.479   -2.496   Os    86      QJU  -0.467000
  1709   C4    1.217   -0.701   -0.564   Cg    86      QJU   0.284000
  1710   H4    2.024   -0.632    0.166   H1    86      QJU   0.000000
  1711   O4    1.716   -1.397   -1.724   Os    86      QJU  -0.441000
  1712   C3   -0.033   -1.493    0.141   Cg    86      QJU   0.223000
  1713   H3    0.315   -2.078    0.992   H1    86      QJU   0.000000
  1714   O3   -0.638   -2.397   -0.832   Os    86      QJU  -0.449000
  1715   C2    0.607    1.263    0.388   Cg    87      QPD   0.324000
  1716   C1   -0.290    1.954    1.422   Cg    87      QPD   0.286000
  1717  H12    0.265    2.143    2.342   H1    87      QPD   0.000000
  1718  H11   -0.654    2.908    1.036   H1    87      QPD   0.000000
  1719   O1   -1.414    1.113    1.715   Oh    87      QPD  -0.691000
  1720  H1O   -1.970    1.540    2.371   Ho    87      QPD   0.419000
  1721   C3    1.262   -0.165    0.832   Cg    87      QPD   0.334000
  1722   H3    0.615   -0.605    1.591   H1    87      QPD   0.000000
  1723   C4    1.192   -1.148   -0.465   Cg    87      QPD   0.282000
  1724   H4    0.957   -2.175   -0.183   H1    87      QPD   0.000000
  1725   C5    0.097   -0.509   -1.483   Cg    87      QPD   0.194000
  1726   H5    0.506   -0.416   -2.492   H1    87      QPD   0.000000
  1727   C6   -1.205   -1.309   -1.531   Cg    87      QPD   0.291000
  1728  H62   -1.677   -1.337   -0.548   H1    87      QPD   0.000000
  1729  H61   -1.009   -2.332   -1.853   H1    87      QPD   0.000000
  1730   O6   -2.091   -0.684   -2.469   Os    87      QPD  -0.478000
  1731   O5   -0.219    0.931   -0.916   Os    87      QPD  -0.453000
  1732   O4    2.447   -1.114   -1.164   Os    87      QPD  -0.456000
  1733   O3    2.579   -0.059    1.407   Os    87      QPD  -0.440000
  1734   C2   -1.060    0.243    0.600   Cg    88      QPU   0.288000
  1735   C1   -1.278    1.552    1.384   Cg    88      QPU   0.365000
  1736  H12   -1.773    1.352    2.335   H1    88      QPU   0.000000
  1737  H11   -0.319    2.024    1.592   H1    88      QPU   0.000000
  1738   O1   -2.082    2.463    0.615   Oh    88      QPU  -0.687000
  1739  H1O   -2.219    3.270    1.116   Ho    88      QPU   0.418000
  1740   O5   -0.461    0.599   -0.814   Os    88      QPU  -0.480000
  1741   C5    0.841   -0.223   -1.152   Cg    88      QPU   0.369000
  1742   H5    1.632    0.464   -1.459   H1    88      QPU   0.000000
  1743   C6    0.523   -1.179   -2.302   Cg    88      QPU   0.215000
  1744  H62   -0.317   -1.826   -2.045   H1    88      QPU   0.000000
  1745  H61    1.388   -1.804   -2.524   H1    88      QPU   0.000000
  1746   O6    0.192   -0.407   -3.463   Os    88      QPU  -0.451000
  1747   C4    1.233   -0.997    0.219   Cg    88      QPU   0.192000
  1748   H4    1.472   -2.047    0.043   H1    88      QPU   0.000000
  1749   O4    2.396   -0.328    0.737   Os    88      QPU  -0.467000
  1750   C3   -0.028   -0.845    1.242   Cg    88      QPU   0.334000
  1751   H3   -0.515   -1.820    1.298   H1    88      QPU   0.000000
  1752   O3    0.376   -0.491    2.579   Os    88      QPU  -0.484000
  1753   C2    0.558    0.553    1.193   Cg    89      UBD   0.241000
  1754   C1   -0.294    0.132    2.413   Cg    89      UBD   0.313000
  1755  H12    0.336   -0.333    3.171   H1    89      UBD   0.000000
  1756  H11   -0.767    1.010    2.855   H1    89      UBD   0.000000
  1757   O1   -1.320   -0.805    2.024   Oh    89      UBD  -0.668000
  1758  H1O   -1.979   -0.855    2.722   Ho    89      UBD   0.414000
  1759   C3    1.131   -0.691    0.289   Cg    89      UBD   0.440000
  1760   H3    0.481   -1.553    0.437   H1    89      UBD   0.000000
  1761   O3    2.488   -1.119    0.586   Oh    89      UBD  -0.732000
  1762  H3O    2.477   -2.044    0.836   Ho    89      UBD   0.404000
  1763   C4    0.999   -0.233   -1.276   Cg    89      UBD   0.225000
  1764   H4    1.968    0.138   -1.613   H1    89      UBD   0.000000
  1765   C5   -0.045    1.012   -1.332   Cg    89      UBD   0.271000
  1766   H5    0.431    1.843   -1.856   H1    89      UBD   0.000000
  1767   C6   -1.406    0.704   -1.989   Cg    89      UBD   0.281000
  1768  H62   -1.969    0.003   -1.371   H1    89      UBD   0.000000
  1769  H61   -1.258    0.250   -2.969   H1    89      UBD   0.000000
  1770   O6   -2.178    1.911   -2.165   Os    89      UBD  -0.462000
  1771   O5   -0.269    1.419    0.185   Os    89      UBD  -0.452000
  1772   O4    0.616   -1.342   -2.140   Os    89      UBD  -0.469000
  1773   C2   -1.056   -0.190    0.611   Cg    90      UBU   0.247000
  1774   C1   -1.008    0.035    2.147   Cg    90      UBU   0.299000
  1775  H12   -1.338   -0.862    2.672   H1    90      UBU   0.000000
  1776  H11    0.018    0.248    2.452   H1    90      UBU   0.000000
  1777   O1   -1.844    1.144    2.545   Oh    90      UBU  -0.627000
  1778  H1O   -1.704    1.330    3.476   Ho    90      UBU   0.382000
  1779   O5   -0.593    1.119   -0.119   Os    90      UBU  -0.385000
  1780   C5    0.682    0.920   -1.034   Cg    90      UBU   0.210000
  1781   H5    1.468    1.595   -0.694   H1    90      UBU   0.000000
  1782   C6    0.335    1.247   -2.499   Cg    90      UBU   0.332000
  1783  H62   -0.478    0.610   -2.847   H1    90      UBU   0.000000
  1784  H61    1.203    1.072   -3.134   H1    90      UBU   0.000000
  1785   O6   -0.057    2.629   -2.633   Os    90      UBU  -0.486000
  1786   C4    1.150   -0.612   -0.766   Cg    90      UBU   0.283000
  1787   H4    2.046   -0.579   -0.145   H1    90      UBU   0.000000
  1788   C3   -0.046   -1.356    0.068   Cg    90      UBU   0.382000
  1789   H3   -0.589   -2.004   -0.621   H1    90      UBU   0.000000
  1790   O3    0.502   -2.192    1.125   Oh    90      UBU  -0.742000
  1791  H3O   -0.168   -2.832    1.387   Ho    90      UBU   0.426000
  1792   O4    1.476   -1.321   -1.992   Os    90      UBU  -0.515000
  1793   C2    0.680    0.554    1.244   Cg    91      UCD   0.284000
  1794   C1   -0.155    0.261    2.524   Cg    91      UCD   0.370000
  1795  H12    0.437   -0.337    3.219   H1    91      UCD   0.000000
  1796  H11   -0.422    1.194    3.023   H1    91      UCD   0.000000
  1797   O1   -1.361   -0.462    2.209   Oh    91      UCD  -0.688000
  1798  H1O   -1.094   -1.206    1.647   Ho    91      UCD   0.414000
  1799   C3    1.141   -0.728    0.335   Cg    91      UCD   0.282000
  1800   H3    2.177   -0.999    0.540   H1    91      UCD   0.000000
  1801   O3    0.310   -1.901    0.586   Oh    91      UCD  -0.716000
  1802  H3O    0.739   -2.682    0.217   Ho    91      UCD   0.432000
  1803   C4    0.941   -0.284   -1.229   Cg    91      UCD   0.332000
  1804   H4    0.474   -1.082   -1.808   H1    91      UCD   0.000000
  1805   C5    0.041    1.063   -1.257   Cg    91      UCD   0.309000
  1806   H5    0.540    1.847   -1.830   H1    91      UCD   0.000000
  1807   C6   -1.356    0.796   -1.842   Cg    91      UCD   0.265000
  1808  H62   -1.936    0.178   -1.155   H1    91      UCD   0.000000
  1809  H61   -1.267    0.259   -2.786   H1    91      UCD   0.000000
  1810   O6   -2.065    2.028   -2.086   Os    91      UCD  -0.446000
  1811   O5   -0.070    1.511    0.259   Os    91      UCD  -0.498000
  1812   O4    2.244   -0.009   -1.811   Os    91      UCD  -0.534000
  1813   C2   -1.091    0.248    0.568   Cg    92      UCU   0.239000
  1814   C1   -1.136    1.528    1.418   Cg    92      UCU   0.287000
  1815  H12   -1.525    1.314    2.414   H1    92      UCU   0.000000
  1816  H11   -0.131    1.937    1.528   H1    92      UCU   0.000000
  1817   O1   -1.966    2.516    0.786   Oh    92      UCU  -0.624000
  1818  H1O   -1.986    3.310    1.326   Ho    92      UCU   0.401000
  1819   O5   -0.624    0.631   -0.887   Os    92      UCU  -0.449000
  1820   C5    0.784    0.023   -1.255   Cg    92      UCU   0.310000
  1821   H5    1.472    0.832   -1.508   H1    92      UCU   0.000000
  1822   C6    0.611   -0.902   -2.460   Cg    92      UCU   0.272000
  1823  H62   -0.135   -1.670   -2.251   H1    92      UCU   0.000000
  1824  H61    1.555   -1.390   -2.701   H1    92      UCU   0.000000
  1825   O6    0.187   -0.119   -3.583   Os    92      UCU  -0.449000
  1826   C4    1.277   -0.765    0.074   Cg    92      UCU   0.293000
  1827   H4    1.665   -1.759   -0.157   H1    92      UCU   0.000000
  1828   C3    0.037   -0.799    1.122   Cg    92      UCU   0.333000
  1829   H3    0.349   -0.561    2.141   H1    92      UCU   0.000000
  1830   O3   -0.445   -2.154    1.088   Oh    92      UCU  -0.691000
  1831  H3O   -1.214   -2.233    1.657   Ho    92      UCU   0.410000
  1832   O4    2.319    0.011    0.680   Os    92      UCU  -0.526000
  1833   C2    0.659    0.610    1.273   Cg    93      UJD   0.192000
  1834   C1   -0.189    0.340    2.547   Cg    93      UJD   0.389000
  1835  H12    0.393   -0.245    3.260   H1    93      UJD   0.000000
  1836  H11   -0.463    1.282    3.024   H1    93      UJD   0.000000
  1837   O1   -1.389   -0.385    2.227   Oh    93      UJD  -0.654000
  1838  H1O   -1.109   -1.143    1.693   Ho    93      UJD   0.380000
  1839   C3    1.192   -0.690    0.434   Cg    93      UJD   0.393000
  1840   H3    2.207   -0.978    0.714   H1    93      UJD   0.000000
  1841   O3    0.304   -1.824    0.640   Oh    93      UJD  -0.748000
  1842  H3O    0.199   -2.248   -0.224   Ho    93      UJD   0.446000
  1843   C4    1.114   -0.269   -1.151   Cg    93      UJD   0.233000
  1844   H4    2.100    0.098   -1.439   H1    93      UJD   0.000000
  1845   C5    0.086    0.984   -1.270   Cg    93      UJD   0.190000
  1846   H5    0.560    1.777   -1.849   H1    93      UJD   0.000000
  1847   C6   -1.285    0.642   -1.888   Cg    93      UJD   0.340000
  1848  H62   -1.841   -0.023   -1.227   H1    93      UJD   0.000000
  1849  H61   -1.151    0.140   -2.846   H1    93      UJD   0.000000
  1850   O6   -2.050    1.842   -2.114   Os    93      UJD  -0.494000
  1851   O5   -0.117    1.477    0.223   Os    93      UJD  -0.410000
  1852   O4    0.783   -1.385   -2.029   Os    93      UJD  -0.451000
  1853   C2   -1.034   -0.233    0.643   Cg    94      UJU   0.351000
  1854   C1   -1.038   -0.053    2.187   Cg    94      UJU   0.333000
  1855  H12   -1.346   -0.979    2.671   H1    94      UJU   0.000000
  1856  H11   -0.031    0.186    2.528   H1    94      UJU   0.000000
  1857   O1   -1.930    1.010    2.598   Oh    94      UJU  -0.697000
  1858  H1O   -1.839    1.162    3.542   Ho    94      UJU   0.415000
  1859   O5   -0.552    1.088   -0.053   Os    94      UJU  -0.389000
  1860   C5    0.806    0.918   -0.852   Cg    94      UJU   0.100000
  1861   H5    1.539    1.625   -0.467   H1    94      UJU   0.000000
  1862   C6    0.539    1.212   -2.337   Cg    94      UJU   0.349000
  1863  H62   -0.267    0.580   -2.708   H1    94      UJU   0.000000
  1864  H61    1.430    1.033   -2.938   H1    94      UJU   0.000000
  1865   O6    0.157    2.590   -2.455   Os    94      UJU  -0.467000
  1866   C4    1.296   -0.590   -0.523   Cg    94      UJU   0.284000
  1867   H4    2.104   -0.521    0.208   H1    94      UJU   0.000000
  1868   C3    0.047   -1.382    0.182   Cg    94      UJU   0.223000
  1869   H3    0.395   -1.967    1.034   H1    94      UJU   0.000000
  1870   O3   -0.558   -2.287   -0.791   Oh    94      UJU  -0.671000
  1871  H3O   -1.512   -2.105   -0.788   Ho    94      UJU   0.416000
  1872   O4    1.796   -1.286   -1.682   Os    94      UJU  -0.441000
  1873   C2    0.462    1.309    0.305   Cg    95      UPD   0.324000
  1874   C1   -0.434    2.001    1.339   Cg    95      UPD   0.286000
  1875  H12    0.120    2.189    2.259   H1    95      UPD   0.000000
  1876  H11   -0.798    2.954    0.953   H1    95      UPD   0.000000
  1877   O1   -1.558    1.160    1.633   Oh    95      UPD  -0.691000
  1878  H1O   -2.115    1.587    2.288   Ho    95      UPD   0.419000
  1879   C3    1.117   -0.118    0.749   Cg    95      UPD   0.334000
  1880   H3    0.471   -0.558    1.508   H1    95      UPD   0.000000
  1881   O3    2.434   -0.012    1.324   Oh    95      UPD  -0.661000
  1882  H3O    2.746   -0.885    1.575   Ho    95      UPD   0.415000
  1883   C4    1.048   -1.102   -0.548   Cg    95      UPD   0.282000
  1884   H4    0.813   -2.129   -0.266   H1    95      UPD   0.000000
  1885   C5   -0.047   -0.463   -1.566   Cg    95      UPD   0.194000
  1886   H5    0.361   -0.370   -2.575   H1    95      UPD   0.000000
  1887   C6   -1.349   -1.262   -1.614   Cg    95      UPD   0.291000
  1888  H62   -1.821   -1.290   -0.631   H1    95      UPD   0.000000
  1889  H61   -1.153   -2.285   -1.936   H1    95      UPD   0.000000
  1890   O6   -2.235   -0.638   -2.552   Os    95      UPD  -0.478000
  1891   O5   -0.363    0.978   -0.998   Os    95      UPD  -0.453000
  1892   O4    2.303   -1.067   -1.247   Os    95      UPD  -0.456000
  1893   C2   -1.110    0.300    0.454   Cg    96      UPU   0.288000
  1894   C1   -1.329    1.609    1.238   Cg    96      UPU   0.365000
  1895  H12   -1.823    1.409    2.190   H1    96      UPU   0.000000
  1896  H11   -0.369    2.081    1.447   H1    96      UPU   0.000000
  1897   O1   -2.132    2.519    0.470   Oh    96      UPU  -0.687000
  1898  H1O   -2.269    3.327    0.971   Ho    96      UPU   0.418000
  1899   O5   -0.511    0.656   -0.959   Os    96      UPU  -0.480000
  1900   C5    0.791   -0.166   -1.297   Cg    96      UPU   0.369000
  1901   H5    1.581    0.521   -1.605   H1    96      UPU   0.000000
  1902   C6    0.473   -1.123   -2.448   Cg    96      UPU   0.215000
  1903  H62   -0.368   -1.769   -2.190   H1    96      UPU   0.000000
  1904  H61    1.338   -1.748   -2.670   H1    96      UPU   0.000000
  1905   O6    0.142   -0.350   -3.608   Os    96      UPU  -0.451000
  1906   C4    1.183   -0.940    0.074   Cg    96      UPU   0.192000
  1907   H4    1.421   -1.990   -0.102   H1    96      UPU   0.000000
  1908   C3   -0.079   -0.788    1.096   Cg    96      UPU   0.334000
  1909   H3   -0.565   -1.763    1.153   H1    96      UPU   0.000000
  1910   O3    0.325   -0.434    2.433   Oh    96      UPU  -0.714000
  1911  H3O    0.955   -1.081    2.760   Ho    96      UPU   0.424000
  1912   O4    2.345   -0.271    0.592   Os    96      UPU  -0.467000
  1913   C2    0.613    0.547    1.348   Cg    97      VBD   0.241000
  1914   C1   -0.238    0.126    2.567   Cg    97      VBD   0.313000
  1915  H12    0.391   -0.339    3.326   H1    97      VBD   0.000000
  1916  H11   -0.711    1.004    3.010   H1    97      VBD   0.000000
  1917   O1   -1.265   -0.811    2.179   Oh    97      VBD  -0.668000
  1918  H1O   -1.924   -0.861    2.877   Ho    97      VBD   0.414000
  1919   C3    1.187   -0.697    0.444   Cg    97      VBD   0.440000
  1920   H3    0.536   -1.559    0.592   H1    97      VBD   0.000000
  1921   C4    1.055   -0.239   -1.121   Cg    97      VBD   0.225000
  1922   H4    2.024    0.132   -1.458   H1    97      VBD   0.000000
  1923   C5    0.011    1.007   -1.177   Cg    97      VBD   0.271000
  1924   H5    0.486    1.837   -1.701   H1    97      VBD   0.000000
  1925   C6   -1.351    0.698   -1.835   Cg    97      VBD   0.281000
  1926  H62   -1.914   -0.002   -1.216   H1    97      VBD   0.000000
  1927  H61   -1.203    0.245   -2.814   H1    97      VBD   0.000000
  1928   O6   -2.123    1.905   -2.010   Os    97      VBD  -0.462000
  1929   O5   -0.214    1.414    0.340   Os    97      VBD  -0.452000
  1930   O4    0.671   -1.347   -1.985   Oh    97      VBD  -0.710000
  1931  H4O    1.425   -1.937   -2.108   Ho    97      VBD   0.435000
  1932   O3    2.543   -1.124    0.741   Os    97      VBD  -0.522000
  1933   C2   -1.158   -0.223    0.769   Cg    98      VBU   0.247000
  1934   C1   -1.110    0.002    2.305   Cg    98      VBU   0.299000
  1935  H12   -1.440   -0.895    2.830   H1    98      VBU   0.000000
  1936  H11   -0.084    0.215    2.610   H1    98      VBU   0.000000
  1937   O1   -1.946    1.111    2.703   Oh    98      VBU  -0.627000
  1938  H1O   -1.806    1.297    3.635   Ho    98      VBU   0.382000
  1939   O5   -0.695    1.086    0.039   Os    98      VBU  -0.385000
  1940   C5    0.580    0.887   -0.876   Cg    98      VBU   0.210000
  1941   H5    1.366    1.562   -0.536   H1    98      VBU   0.000000
  1942   C6    0.232    1.214   -2.341   Cg    98      VBU   0.332000
  1943  H62   -0.580    0.577   -2.689   H1    98      VBU   0.000000
  1944  H61    1.101    1.039   -2.976   H1    98      VBU   0.000000
  1945   O6   -0.160    2.596   -2.475   Os    98      VBU  -0.486000
  1946   C4    1.048   -0.645   -0.608   Cg    98      VBU   0.283000
  1947   H4    1.944   -0.612    0.013   H1    98      VBU   0.000000
  1948   O4    1.374   -1.354   -1.834   Oh    98      VBU  -0.755000
  1949  H4O    1.770   -2.206   -1.616   Ho    98      VBU   0.434000
  1950   C3   -0.148   -1.389    0.226   Cg    98      VBU   0.382000
  1951   H3   -0.692   -2.037   -0.463   H1    98      VBU   0.000000
  1952   O3    0.400   -2.225    1.283   Os    98      VBU  -0.510000
  1953   C2    0.579    0.391    1.317   Cg    99      VCD   0.284000
  1954   C1   -0.255    0.097    2.597   Cg    99      VCD   0.370000
  1955  H12    0.337   -0.500    3.292   H1    99      VCD   0.000000
  1956  H11   -0.522    1.030    3.096   H1    99      VCD   0.000000
  1957   O1   -1.461   -0.626    2.282   Oh    99      VCD  -0.688000
  1958  H1O   -1.195   -1.370    1.720   Ho    99      VCD   0.414000
  1959   C3    1.041   -0.891    0.408   Cg    99      VCD   0.282000
  1960   H3    2.077   -1.163    0.613   H1    99      VCD   0.000000
  1961   C4    0.841   -0.448   -1.156   Cg    99      VCD   0.332000
  1962   H4    0.374   -1.246   -1.735   H1    99      VCD   0.000000
  1963   C5   -0.060    0.900   -1.184   Cg    99      VCD   0.309000
  1964   H5    0.440    1.683   -1.757   H1    99      VCD   0.000000
  1965   C6   -1.456    0.633   -1.769   Cg    99      VCD   0.265000
  1966  H62   -2.036    0.015   -1.082   H1    99      VCD   0.000000
  1967  H61   -1.367    0.096   -2.713   H1    99      VCD   0.000000
  1968   O6   -2.165    1.865   -2.013   Os    99      VCD  -0.446000
  1969   O5   -0.170    1.348    0.332   Os    99      VCD  -0.498000
  1970   O4    2.144   -0.173   -1.738   Oh    99      VCD  -0.784000
  1971  H4O    2.647    0.423   -1.169   Ho    99      VCD   0.444000
  1972   O3    0.209   -2.065    0.659   Os    99      VCD  -0.478000
  1973   C2   -1.305    0.133    0.647   Cg   100      VCU   0.239000
  1974   C1   -1.350    1.413    1.497   Cg   100      VCU   0.287000
  1975  H12   -1.739    1.199    2.493   H1   100      VCU   0.000000
  1976  H11   -0.345    1.822    1.607   H1   100      VCU   0.000000
  1977   O1   -2.180    2.401    0.865   Oh   100      VCU  -0.624000
  1978  H1O   -2.200    3.195    1.405   Ho   100      VCU   0.401000
  1979   O5   -0.838    0.515   -0.808   Os   100      VCU  -0.449000
  1980   C5    0.570   -0.092   -1.176   Cg   100      VCU   0.310000
  1981   H5    1.258    0.717   -1.429   H1   100      VCU   0.000000
  1982   C6    0.397   -1.017   -2.381   Cg   100      VCU   0.272000
  1983  H62   -0.349   -1.785   -2.172   H1   100      VCU   0.000000
  1984  H61    1.341   -1.506   -2.622   H1   100      VCU   0.000000
  1985   O6   -0.027   -0.234   -3.504   Os   100      VCU  -0.449000
  1986   C4    1.063   -0.880    0.153   Cg   100      VCU   0.293000
  1987   H4    1.451   -1.875   -0.078   H1   100      VCU   0.000000
  1988   O4    2.105   -0.104    0.759   Oh   100      VCU  -0.763000
  1989  H4O    2.850   -0.041    0.156   Ho   100      VCU   0.431000
  1990   C3   -0.177   -0.914    1.201   Cg   100      VCU   0.333000
  1991   H3    0.135   -0.676    2.220   H1   100      VCU   0.000000
  1992   O3   -0.659   -2.269    1.167   Os   100      VCU  -0.475000
  1993   C2    0.590    0.583    1.386   Cg   101      VJD   0.192000
  1994   C1   -0.258    0.312    2.660   Cg   101      VJD   0.389000
  1995  H12    0.324   -0.273    3.373   H1   101      VJD   0.000000
  1996  H11   -0.532    1.254    3.137   H1   101      VJD   0.000000
  1997   O1   -1.458   -0.412    2.340   Oh   101      VJD  -0.654000
  1998  H1O   -1.178   -1.171    1.806   Ho   101      VJD   0.380000
  1999   C3    1.123   -0.718    0.547   Cg   101      VJD   0.393000
  2000   H3    2.138   -1.005    0.827   H1   101      VJD   0.000000
  2001   C4    1.045   -0.296   -1.038   Cg   101      VJD   0.233000
  2002   H4    2.031    0.070   -1.326   H1   101      VJD   0.000000
  2003   C5    0.017    0.956   -1.157   Cg   101      VJD   0.190000
  2004   H5    0.491    1.750   -1.737   H1   101      VJD   0.000000
  2005   C6   -1.354    0.615   -1.775   Cg   101      VJD   0.340000
  2006  H62   -1.910   -0.050   -1.115   H1   101      VJD   0.000000
  2007  H61   -1.220    0.112   -2.733   H1   101      VJD   0.000000
  2008   O6   -2.119    1.814   -2.001   Os   101      VJD  -0.494000
  2009   O5   -0.186    1.449    0.336   Os   101      VJD  -0.410000
  2010   O4    0.714   -1.412   -1.916   Oh   101      VJD  -0.671000
  2011  H4O    1.508   -1.727   -2.365   Ho   101      VJD   0.414000
  2012   O3    0.235   -1.851    0.753   Os   101      VJD  -0.496000
  2013   C2   -1.168   -0.238    0.696   Cg   102      VJU   0.351000
  2014   C1   -1.172   -0.058    2.240   Cg   102      VJU   0.333000
  2015  H12   -1.480   -0.984    2.725   H1   102      VJU   0.000000
  2016  H11   -0.165    0.181    2.582   H1   102      VJU   0.000000
  2017   O1   -2.064    1.005    2.651   Oh   102      VJU  -0.697000
  2018  H1O   -1.972    1.157    3.596   Ho   102      VJU   0.415000
  2019   O5   -0.686    1.083    0.000   Os   102      VJU  -0.389000
  2020   C5    0.672    0.913   -0.799   Cg   102      VJU   0.100000
  2021   H5    1.405    1.620   -0.413   H1   102      VJU   0.000000
  2022   C6    0.405    1.206   -2.283   Cg   102      VJU   0.349000
  2023  H62   -0.401    0.575   -2.655   H1   102      VJU   0.000000
  2024  H61    1.296    1.028   -2.885   H1   102      VJU   0.000000
  2025   O6    0.023    2.585   -2.402   Os   102      VJU  -0.467000
  2026   C4    1.162   -0.595   -0.469   Cg   102      VJU   0.284000
  2027   H4    1.970   -0.526    0.261   H1   102      VJU   0.000000
  2028   O4    1.662   -1.292   -1.629   Oh   102      VJU  -0.657000
  2029  H4O    1.033   -2.008   -1.801   Ho   102      VJU   0.410000
  2030   C3   -0.087   -1.387    0.236   Cg   102      VJU   0.223000
  2031   H3    0.261   -1.972    1.087   H1   102      VJU   0.000000
  2032   O3   -0.692   -2.292   -0.737   Os   102      VJU  -0.449000
  2033   C2    0.450    1.335    0.418   Cg   103      VPD   0.324000
  2034   C1   -0.447    2.027    1.451   Cg   103      VPD   0.286000
  2035  H12    0.108    2.215    2.372   H1   103      VPD   0.000000
  2036  H11   -0.811    2.980    1.066   H1   103      VPD   0.000000
  2037   O1   -1.571    1.186    1.745   Oh   103      VPD  -0.691000
  2038  H1O   -2.127    1.613    2.400   Ho   103      VPD   0.419000
  2039   C3    1.105   -0.092    0.861   Cg   103      VPD   0.334000
  2040   H3    0.458   -0.532    1.620   H1   103      VPD   0.000000
  2041   C4    1.035   -1.076   -0.435   Cg   103      VPD   0.282000
  2042   H4    0.800   -2.103   -0.153   H1   103      VPD   0.000000
  2043   C5   -0.060   -0.437   -1.454   Cg   103      VPD   0.194000
  2044   H5    0.349   -0.344   -2.462   H1   103      VPD   0.000000
  2045   C6   -1.362   -1.236   -1.502   Cg   103      VPD   0.291000
  2046  H62   -1.834   -1.264   -0.518   H1   103      VPD   0.000000
  2047  H61   -1.166   -2.259   -1.823   H1   103      VPD   0.000000
  2048   O6   -2.248   -0.612   -2.439   Os   103      VPD  -0.478000
  2049   O5   -0.376    1.003   -0.886   Os   103      VPD  -0.453000
  2050   O4    2.290   -1.041   -1.135   Oh   103      VPD  -0.683000
  2051  H4O    2.984   -1.377   -0.563   Ho   103      VPD   0.421000
  2052   O3    2.422    0.014    1.437   Os   103      VPD  -0.440000
  2053   C2   -1.216    0.265    0.593   Cg   104      VPU   0.288000
  2054   C1   -1.435    1.573    1.378   Cg   104      VPU   0.365000
  2055  H12   -1.929    1.374    2.329   H1   104      VPU   0.000000
  2056  H11   -0.475    2.046    1.586   H1   104      VPU   0.000000
  2057   O1   -2.238    2.484    0.609   Oh   104      VPU  -0.687000
  2058  H1O   -2.375    3.292    1.110   Ho   104      VPU   0.418000
  2059   O5   -0.617    0.620   -0.820   Os   104      VPU  -0.480000
  2060   C5    0.685   -0.202   -1.158   Cg   104      VPU   0.369000
  2061   H5    1.475    0.486   -1.466   H1   104      VPU   0.000000
  2062   C6    0.367   -1.158   -2.308   Cg   104      VPU   0.215000
  2063  H62   -0.474   -1.804   -2.051   H1   104      VPU   0.000000
  2064  H61    1.232   -1.783   -2.530   H1   104      VPU   0.000000
  2065   O6    0.036   -0.385   -3.469   Os   104      VPU  -0.451000
  2066   C4    1.077   -0.976    0.213   Cg   104      VPU   0.192000
  2067   H4    1.315   -2.026    0.037   H1   104      VPU   0.000000
  2068   O4    2.239   -0.306    0.731   Oh   104      VPU  -0.711000
  2069  H4O    2.969   -0.411    0.116   Ho   104      VPU   0.438000
  2070   C3   -0.185   -0.823    1.235   Cg   104      VPU   0.334000
  2071   H3   -0.671   -1.798    1.292   H1   104      VPU   0.000000
  2072   O3    0.219   -0.469    2.573   Os   104      VPU  -0.484000
  2073   C2    0.771    0.327    1.377   Cg   105      WBD   0.241000
  2074   C1   -0.081   -0.094    2.596   Cg   105      WBD   0.313000
  2075  H12    0.548   -0.559    3.355   H1   105      WBD   0.000000
  2076  H11   -0.554    0.784    3.039   H1   105      WBD   0.000000
  2077   O1   -1.107   -1.031    2.208   Oh   105      WBD  -0.668000
  2078  H1O   -1.767   -1.081    2.905   Ho   105      WBD   0.414000
  2079   C3    1.344   -0.916    0.473   Cg   105      WBD   0.440000
  2080   H3    0.694   -1.779    0.620   H1   105      WBD   0.000000
  2081   C4    1.212   -0.458   -1.092   Cg   105      WBD   0.225000
  2082   H4    2.181   -0.087   -1.429   H1   105      WBD   0.000000
  2083   C5    0.168    0.787   -1.148   Cg   105      WBD   0.271000
  2084   H5    0.644    1.617   -1.672   H1   105      WBD   0.000000
  2085   C6   -1.194    0.479   -1.806   Cg   105      WBD   0.281000
  2086  H62   -1.756   -0.222   -1.187   H1   105      WBD   0.000000
  2087  H61   -1.045    0.025   -2.786   H1   105      WBD   0.000000
  2088   O6   -1.965    1.685   -1.981   Oh   105      WBD  -0.679000
  2089  H6O   -1.564    2.239   -2.653   Ho   105      WBD   0.411000
  2090   O5   -0.057    1.194    0.369   Os   105      WBD  -0.452000
  2091   O4    0.828   -1.567   -1.956   Os   105      WBD  -0.469000
  2092   O3    2.701   -1.344    0.770   Os   105      WBD  -0.522000
  2093   C2   -1.095   -0.491    0.793   Cg   106      WBU   0.247000
  2094   C1   -1.047   -0.266    2.329   Cg   106      WBU   0.299000
  2095  H12   -1.377   -1.164    2.854   H1   106      WBU   0.000000
  2096  H11   -0.021   -0.054    2.634   H1   106      WBU   0.000000
  2097   O1   -1.883    0.842    2.727   Oh   106      WBU  -0.627000
  2098  H1O   -1.743    1.028    3.658   Ho   106      WBU   0.382000
  2099   O5   -0.632    0.817    0.063   Os   106      WBU  -0.385000
  2100   C5    0.643    0.618   -0.852   Cg   106      WBU   0.210000
  2101   H5    1.429    1.293   -0.512   H1   106      WBU   0.000000
  2102   C6    0.295    0.946   -2.317   Cg   106      WBU   0.332000
  2103  H62   -0.517    0.308   -2.665   H1   106      WBU   0.000000
  2104  H61    1.164    0.771   -2.952   H1   106      WBU   0.000000
  2105   O6   -0.096    2.327   -2.451   Oh   106      WBU  -0.701000
  2106  H6O    0.573    2.899   -2.071   Ho   106      WBU   0.409000
  2107   C4    1.111   -0.914   -0.584   Cg   106      WBU   0.283000
  2108   H4    2.007   -0.881    0.037   H1   106      WBU   0.000000
  2109   O4    1.437   -1.623   -1.810   Os   106      WBU  -0.515000
  2110   C3   -0.085   -1.657    0.250   Cg   106      WBU   0.382000
  2111   H3   -0.628   -2.305   -0.439   H1   106      WBU   0.000000
  2112   O3    0.463   -2.494    1.307   Os   106      WBU  -0.510000
  2113   C2    0.799    0.294    1.395   Cg   107      WCD   0.284000
  2114   C1   -0.035    0.000    2.675   Cg   107      WCD   0.370000
  2115  H12    0.557   -0.597    3.370   H1   107      WCD   0.000000
  2116  H11   -0.302    0.933    3.173   H1   107      WCD   0.000000
  2117   O1   -1.241   -0.723    2.360   Oh   107      WCD  -0.688000
  2118  H1O   -0.975   -1.467    1.798   Ho   107      WCD   0.414000
  2119   C3    1.260   -0.988    0.485   Cg   107      WCD   0.282000
  2120   H3    2.297   -1.260    0.690   H1   107      WCD   0.000000
  2121   C4    1.061   -0.545   -1.079   Cg   107      WCD   0.332000
  2122   H4    0.594   -1.343   -1.657   H1   107      WCD   0.000000
  2123   C5    0.160    0.803   -1.106   Cg   107      WCD   0.309000
  2124   H5    0.660    1.586   -1.680   H1   107      WCD   0.000000
  2125   C6   -1.237    0.536   -1.692   Cg   107      WCD   0.265000
  2126  H62   -1.817   -0.082   -1.004   H1   107      WCD   0.000000
  2127  H61   -1.148   -0.002   -2.636   H1   107      WCD   0.000000
  2128   O6   -1.945    1.768   -1.936   Oh   107      WCD  -0.664000
  2129  H6O   -1.529    2.268   -2.641   Ho   107      WCD   0.412000
  2130   O5    0.050    1.251    0.409   Os   107      WCD  -0.498000
  2131   O4    2.364   -0.270   -1.660   Os   107      WCD  -0.534000
  2132   O3    0.429   -2.162    0.737   Os   107      WCD  -0.478000
  2133   C2   -1.194    0.109    0.839   Cg   108      WCU   0.239000
  2134   C1   -1.239    1.389    1.689   Cg   108      WCU   0.287000
  2135  H12   -1.628    1.174    2.686   H1   108      WCU   0.000000
  2136  H11   -0.234    1.798    1.800   H1   108      WCU   0.000000
  2137   O1   -2.069    2.377    1.058   Oh   108      WCU  -0.624000
  2138  H1O   -2.089    3.171    1.597   Ho   108      WCU   0.401000
  2139   O5   -0.727    0.491   -0.616   Os   108      WCU  -0.449000
  2140   C5    0.681   -0.116   -0.984   Cg   108      WCU   0.310000
  2141   H5    1.369    0.693   -1.237   H1   108      WCU   0.000000
  2142   C6    0.508   -1.042   -2.189   Cg   108      WCU   0.272000
  2143  H62   -0.238   -1.809   -1.979   H1   108      WCU   0.000000
  2144  H61    1.452   -1.530   -2.430   H1   108      WCU   0.000000
  2145   O6    0.084   -0.258   -3.311   Oh   108      WCU  -0.652000
  2146  H6O    0.741    0.416   -3.499   Ho   108      WCU   0.397000
  2147   C4    1.174   -0.904    0.345   Cg   108      WCU   0.293000
  2148   H4    1.562   -1.899    0.115   H1   108      WCU   0.000000
  2149   O4    2.216   -0.128    0.952   Os   108      WCU  -0.526000
  2150   C3   -0.066   -0.938    1.394   Cg   108      WCU   0.333000
  2151   H3    0.246   -0.700    2.412   H1   108      WCU   0.000000
  2152   O3   -0.548   -2.293    1.359   Os   108      WCU  -0.475000
  2153   C2    0.747    0.376    1.396   Cg   109      WJD   0.192000
  2154   C1   -0.100    0.105    2.670   Cg   109      WJD   0.389000
  2155  H12    0.482   -0.480    3.384   H1   109      WJD   0.000000
  2156  H11   -0.375    1.047    3.148   H1   109      WJD   0.000000
  2157   O1   -1.301   -0.619    2.351   Oh   109      WJD  -0.654000
  2158  H1O   -1.021   -1.378    1.816   Ho   109      WJD   0.380000
  2159   C3    1.281   -0.925    0.558   Cg   109      WJD   0.393000
  2160   H3    2.295   -1.212    0.838   H1   109      WJD   0.000000
  2161   C4    1.203   -0.503   -1.027   Cg   109      WJD   0.233000
  2162   H4    2.188   -0.137   -1.315   H1   109      WJD   0.000000
  2163   C5    0.174    0.749   -1.146   Cg   109      WJD   0.190000
  2164   H5    0.648    1.543   -1.726   H1   109      WJD   0.000000
  2165   C6   -1.196    0.408   -1.764   Cg   109      WJD   0.340000
  2166  H62   -1.753   -0.257   -1.104   H1   109      WJD   0.000000
  2167  H61   -1.062   -0.095   -2.722   H1   109      WJD   0.000000
  2168   O6   -1.962    1.607   -1.990   Oh   109      WJD  -0.725000
  2169  H6O   -1.483    2.204   -2.569   Ho   109      WJD   0.425000
  2170   O5   -0.029    1.243    0.346   Os   109      WJD  -0.410000
  2171   O4    0.872   -1.619   -1.906   Os   109      WJD  -0.451000
  2172   O3    0.392   -2.058    0.764   Os   109      WJD  -0.496000
  2173   C2   -1.086   -0.477    0.691   Cg   110      WJU   0.351000
  2174   C1   -1.090   -0.297    2.235   Cg   110      WJU   0.333000
  2175  H12   -1.398   -1.224    2.720   H1   110      WJU   0.000000
  2176  H11   -0.083   -0.058    2.577   H1   110      WJU   0.000000
  2177   O1   -1.982    0.766    2.646   Oh   110      WJU  -0.697000
  2178  H1O   -1.891    0.918    3.590   Ho   110      WJU   0.415000
  2179   O5   -0.604    0.844   -0.005   Os   110      WJU  -0.389000
  2180   C5    0.754    0.673   -0.804   Cg   110      WJU   0.100000
  2181   H5    1.487    1.381   -0.418   H1   110      WJU   0.000000
  2182   C6    0.487    0.967   -2.289   Cg   110      WJU   0.349000
  2183  H62   -0.319    0.336   -2.660   H1   110      WJU   0.000000
  2184  H61    1.378    0.789   -2.890   H1   110      WJU   0.000000
  2185   O6    0.105    2.346   -2.407   Oh   110      WJU  -0.684000
  2186  H6O   -0.524    2.534   -1.703   Ho   110      WJU   0.411000
  2187   C4    1.244   -0.834   -0.475   Cg   110      WJU   0.284000
  2188   H4    2.052   -0.765    0.256   H1   110      WJU   0.000000
  2189   O4    1.744   -1.531   -1.634   Os   110      WJU  -0.441000
  2190   C3   -0.005   -1.626    0.231   Cg   110      WJU   0.223000
  2191   H3    0.343   -2.211    1.082   H1   110      WJU   0.000000
  2192   O3   -0.610   -2.531   -0.743   Os   110      WJU  -0.449000
  2193   C2    0.690    1.296    0.555   Cg   111      WPD   0.324000
  2194   C1   -0.206    1.987    1.588   Cg   111      WPD   0.286000
  2195  H12    0.349    2.176    2.509   H1   111      WPD   0.000000
  2196  H11   -0.570    2.941    1.203   H1   111      WPD   0.000000
  2197   O1   -1.330    1.146    1.882   Oh   111      WPD  -0.691000
  2198  H1O   -1.887    1.573    2.537   Ho   111      WPD   0.419000
  2199   C3    1.346   -0.132    0.998   Cg   111      WPD   0.334000
  2200   H3    0.699   -0.572    1.758   H1   111      WPD   0.000000
  2201   C4    1.276   -1.115   -0.298   Cg   111      WPD   0.282000
  2202   H4    1.041   -2.142   -0.016   H1   111      WPD   0.000000
  2203   C5    0.181   -0.476   -1.317   Cg   111      WPD   0.194000
  2204   H5    0.590   -0.383   -2.325   H1   111      WPD   0.000000
  2205   C6   -1.121   -1.276   -1.365   Cg   111      WPD   0.291000
  2206  H62   -1.593   -1.304   -0.381   H1   111      WPD   0.000000
  2207  H61   -0.925   -2.299   -1.686   H1   111      WPD   0.000000
  2208   O6   -2.007   -0.651   -2.302   Oh   111      WPD  -0.695000
  2209  H6O   -1.591   -0.627   -3.167   Ho   111      WPD   0.411000
  2210   O5   -0.135    0.964   -0.749   Os   111      WPD  -0.453000
  2211   O4    2.531   -1.081   -0.998   Os   111      WPD  -0.456000
  2212   O3    2.663   -0.026    1.574   Os   111      WPD  -0.440000
  2213   C2   -1.106    0.235    0.784   Cg   112      WPU   0.288000
  2214   C1   -1.325    1.543    1.568   Cg   112      WPU   0.365000
  2215  H12   -1.819    1.344    2.520   H1   112      WPU   0.000000
  2216  H11   -0.365    2.016    1.776   H1   112      WPU   0.000000
  2217   O1   -2.128    2.454    0.800   Oh   112      WPU  -0.687000
  2218  H1O   -2.265    3.262    1.300   Ho   112      WPU   0.418000
  2219   O5   -0.507    0.590   -0.630   Os   112      WPU  -0.480000
  2220   C5    0.794   -0.232   -0.968   Cg   112      WPU   0.369000
  2221   H5    1.585    0.456   -1.275   H1   112      WPU   0.000000
  2222   C6    0.477   -1.188   -2.118   Cg   112      WPU   0.215000
  2223  H62   -0.364   -1.834   -1.860   H1   112      WPU   0.000000
  2224  H61    1.342   -1.813   -2.340   H1   112      WPU   0.000000
  2225   O6    0.145   -0.415   -3.278   Oh   112      WPU  -0.678000
  2226  H6O    0.881    0.160   -3.501   Ho   112      WPU   0.421000
  2227   C4    1.187   -1.006    0.403   Cg   112      WPU   0.192000
  2228   H4    1.425   -2.056    0.228   H1   112      WPU   0.000000
  2229   O4    2.349   -0.336    0.921   Os   112      WPU  -0.467000
  2230   C3   -0.075   -0.853    1.426   Cg   112      WPU   0.334000
  2231   H3   -0.561   -1.828    1.482   H1   112      WPU   0.000000
  2232   O3    0.329   -0.499    2.763   Os   112      WPU  -0.484000
  2233   C1   -1.459    1.176   -0.923   Cg   113      ZAD   0.368000
  2234   H1   -1.054    2.076   -1.385   H2   113      ZAD   0.000000
  2235   C2   -0.905   -0.175   -1.650   Cg   113      ZAD   0.278000
  2236   H2   -1.746   -0.767   -2.017   H1   113      ZAD   0.000000
  2237   C3   -0.078   -1.034   -0.527   Cg   113      ZAD   0.370000
  2238   H3    0.975   -1.089   -0.807   H1   113      ZAD   0.000000
  2239   C4   -0.241   -0.277    0.893   Cg   113      ZAD   0.147000
  2240   H4   -0.880   -0.862    1.556   H1   113      ZAD   0.000000
  2241   C5    1.096   -0.014    1.591   Cg   113      ZAD   0.338000
  2242  H52    1.641   -0.948    1.729   H1   113      ZAD   0.000000
  2243  H51    0.927    0.434    2.570   H1   113      ZAD   0.000000
  2244   O5    1.880    0.886    0.789   Oh   113      ZAD  -0.696000
  2245  H5O    1.465    1.754    0.827   Ho   113      ZAD   0.399000
  2246   O4   -0.987    1.081    0.562   Os   113      ZAD  -0.453000
  2247   O3   -0.594   -2.380   -0.423   Os   113      ZAD  -0.493000
  2248   O2   -0.041    0.138   -2.784   Os   113      ZAD  -0.452000
  2249   C1    0.355   -0.142    2.032   Cg   114      ZAU   0.477000
  2250   H1    1.135    0.129    2.743   H2   114      ZAU   0.000000
  2251   O4    0.081    1.021    1.030   Os   114      ZAU  -0.532000
  2252   C4    0.139    0.568   -0.495   Cg   114      ZAU   0.327000
  2253   H4    0.966    1.092   -0.978   H1   114      ZAU   0.000000
  2254   C5   -1.180    0.921   -1.197   Cg   114      ZAU   0.227000
  2255  H52   -2.013    0.431   -0.694   H1   114      ZAU   0.000000
  2256  H51   -1.158    0.585   -2.234   H1   114      ZAU   0.000000
  2257   O5   -1.387    2.346   -1.168   Oh   114      ZAU  -0.650000
  2258  H5O   -1.248    2.666   -0.270   Ho   114      ZAU   0.397000
  2259   C3    0.443   -1.026   -0.448   Cg   114      ZAU   0.215000
  2260   H3   -0.439   -1.574   -0.783   H1   114      ZAU   0.000000
  2261   O3    1.556   -1.363   -1.313   Os   114      ZAU  -0.485000
  2262   C2    0.777   -1.421    1.103   Cg   114      ZAU   0.328000
  2263   H2    1.854   -1.564    1.209   H1   114      ZAU   0.000000
  2264   O2    0.120   -2.670    1.463   Os   114      ZAU  -0.498000
  2265   C1   -1.691    0.975   -0.802   Cg   115      ZDD   0.380000
  2266   H1   -1.461    1.912   -1.309   H1   115      ZDD   0.000000
  2267   C2   -1.148   -0.319   -1.635   Cg   115      ZDD   0.229000
  2268   H2   -1.928   -1.082   -1.652   H1   115      ZDD   0.000000
  2269   C3    0.118   -0.934   -0.791   Cg   115      ZDD   0.298000
  2270   H3    0.076   -2.023   -0.760   H1   115      ZDD   0.000000
  2271   C4    0.047   -0.295    0.700   Cg   115      ZDD   0.189000
  2272   H4   -0.420   -1.038    1.349   H1   115      ZDD   0.000000
  2273   C5    1.370    0.155    1.339   Cg   115      ZDD   0.305000
  2274  H52    2.071   -0.679    1.388   H1   115      ZDD   0.000000
  2275  H51    1.823    0.958    0.758   H1   115      ZDD   0.000000
  2276   O5    1.107    0.629    2.671   Oh   115      ZDD  -0.697000
  2277  H5O    0.452    1.331    2.616   Ho   115      ZDD   0.414000
  2278   O4   -0.955    0.930    0.574   Os   115      ZDD  -0.423000
  2279   O3    1.349   -0.525   -1.429   Os   115      ZDD  -0.455000
  2280   O2   -0.810    0.003   -3.017   Os   115      ZDD  -0.434000
  2281   C1   -1.615   -0.656    1.241   Cg   116      ZDU   0.436000
  2282   H1   -1.750   -0.522    2.314   H2   116      ZDU   0.000000
  2283   O4   -1.217    0.702    0.597   Os   116      ZDU  -0.517000
  2284   C4    0.254    0.714    0.000   Cg   116      ZDU   0.135000
  2285   H4    0.829    1.494    0.500   H1   116      ZDU   0.000000
  2286   C5    0.221    1.006   -1.514   Cg   116      ZDU   0.373000
  2287  H52   -0.358    0.243   -2.037   H1   116      ZDU   0.000000
  2288  H51    1.234    1.005   -1.914   H1   116      ZDU   0.000000
  2289   O5   -0.370    2.295   -1.760   Oh   116      ZDU  -0.725000
  2290  H5O   -0.112    2.901   -1.063   Ho   116      ZDU   0.418000
  2291   C3    0.871   -0.731    0.397   Cg   116      ZDU   0.300000
  2292   H3    1.566   -0.580    1.224   H1   116      ZDU   0.000000
  2293   O3    1.593   -1.354   -0.689   Os   116      ZDU  -0.431000
  2294   C2   -0.362   -1.670    0.941   Cg   116      ZDU   0.284000
  2295   H2   -0.074   -2.197    1.849   H1   116      ZDU   0.000000
  2296   O2   -0.711   -2.652   -0.087   Os   116      ZDU  -0.467000
  2297   C1    0.546    0.238    2.109   Cg   117      ZRD   0.445000
  2298   H1   -0.064   -0.050    2.965   H2   117      ZRD   0.000000
  2299   C2    1.074   -1.048    1.242   Cg   117      ZRD   0.318000
  2300   H2    0.341   -1.841    1.394   H1   117      ZRD   0.000000
  2301   C3    0.979   -0.621   -0.340   Cg   117      ZRD   0.275000
  2302   H3    0.623   -1.454   -0.946   H1   117      ZRD   0.000000
  2303   C4   -0.019    0.662   -0.429   Cg   117      ZRD   0.327000
  2304   H4    0.462    1.488   -0.955   H1   117      ZRD   0.000000
  2305   C5   -1.345    0.309   -1.127   Cg   117      ZRD   0.195000
  2306  H52   -1.880   -0.443   -0.546   H1   117      ZRD   0.000000
  2307  H51   -1.144   -0.106   -2.114   H1   117      ZRD   0.000000
  2308   O5   -2.186    1.469   -1.279   Oh   117      ZRD  -0.667000
  2309  H5O   -1.774    2.118   -1.855   Ho   117      ZRD   0.408000
  2310   O4   -0.272    1.084    1.083   Os   117      ZRD  -0.513000
  2311   O3    2.285   -0.212   -0.824   Os   117      ZRD  -0.495000
  2312   O2    2.375   -1.592    1.622   Os   117      ZRD  -0.487000
  2313   C1    0.251   -0.213    2.160   Cg   118      ZRU   0.378000
  2314   H1    0.994    0.037    2.919   H1   118      ZRU   0.000000
  2315   O4    0.049    0.977    1.177   Os   118      ZRU  -0.424000
  2316   C4    0.196    0.560   -0.347   Cg   118      ZRU   0.102000
  2317   H4    1.091    1.040   -0.746   H1   118      ZRU   0.000000
  2318   C5   -1.028    0.979   -1.172   Cg   118      ZRU   0.338000
  2319  H52   -0.962    0.560   -2.176   H1   118      ZRU   0.000000
  2320  H51   -1.943    0.615   -0.706   H1   118      ZRU   0.000000
  2321   O5   -1.083    2.411   -1.272   Oh   118      ZRU  -0.692000
  2322  H5O   -1.837    2.667   -1.806   Ho   118      ZRU   0.415000
  2323   C3    0.406   -1.042   -0.323   Cg   118      ZRU   0.289000
  2324   H3   -0.510   -1.531   -0.657   H1   118      ZRU   0.000000
  2325   O3    1.479   -1.425   -1.209   Os   118      ZRU  -0.449000
  2326   C2    0.684   -1.487    1.234   Cg   118      ZRU   0.293000
  2327   H2    0.109   -2.380    1.482   H1   118      ZRU   0.000000
  2328   O2    2.103   -1.769    1.443   Os   118      ZRU  -0.444000
  2329   C1   -1.285    1.309   -0.921   Cg   119      ZXD   0.428000
  2330   H1   -0.894    2.043   -1.625   H1   119      ZXD   0.000000
  2331   C2   -1.098   -0.236   -1.426   Cg   119      ZXD   0.248000
  2332   H2   -0.309   -0.245   -2.180   H1   119      ZXD   0.000000
  2333   C3   -0.595   -1.100   -0.132   Cg   119      ZXD   0.302000
  2334   H3   -1.450   -1.635    0.284   H1   119      ZXD   0.000000
  2335   C4   -0.081   -0.043    0.991   Cg   119      ZXD   0.237000
  2336   H4   -0.605   -0.250    1.924   H1   119      ZXD   0.000000
  2337   C5    1.435   -0.012    1.277   Cg   119      ZXD   0.280000
  2338  H52    1.613    0.548    2.195   H1   119      ZXD   0.000000
  2339  H51    1.827   -1.019    1.418   H1   119      ZXD   0.000000
  2340   O5    2.141    0.642    0.205   Oh   119      ZXD  -0.678000
  2341  H5O    1.737    1.504    0.067   Ho   119      ZXD   0.422000
  2342   O4   -0.541    1.383    0.449   Os   119      ZXD  -0.507000
  2343   O3    0.403   -2.075   -0.515   Os   119      ZXD  -0.482000
  2344   O2   -2.297   -0.814   -2.013   Os   119      ZXD  -0.444000
  2345   C1   -1.598   -0.521    1.319   Cg   120      ZXU   0.388000
  2346   H1   -1.705   -0.342    2.389   H2   120      ZXU   0.000000
  2347   O4   -1.136    0.788    0.615   Os   120      ZXU  -0.427000
  2348   C4    0.287    0.668   -0.072   Cg   120      ZXU   0.142000
  2349   H4    0.958    1.395    0.388   H1   120      ZXU   0.000000
  2350   C5    0.168    0.980   -1.576   Cg   120      ZXU   0.285000
  2351  H52   -0.522    0.284   -2.056   H1   120      ZXU   0.000000
  2352  H51    1.143    0.884   -2.054   H1   120      ZXU   0.000000
  2353   O5   -0.309    2.324   -1.766   Oh   120      ZXU  -0.635000
  2354  H5O    0.195    2.925   -1.214   Ho   120      ZXU   0.396000
  2355   C3    0.809   -0.827    0.300   Cg   120      ZXU   0.224000
  2356   H3    1.636   -0.729    1.004   H1   120      ZXU   0.000000
  2357   O3    1.285   -1.551   -0.862   Os   120      ZXU  -0.444000
  2358   C2   -0.429   -1.620    1.018   Cg   120      ZXU   0.382000
  2359   H2   -0.813   -2.381    0.338   H1   120      ZXU   0.000000
  2360   O2    0.032   -2.278    2.230   Os   120      ZXU  -0.505000
@<TRIPOS>BOND
     1      1      2 1
     2      1      3 1
     3      1     14 1
     4      3      4 1
     5      3      5 1
     6      3     17 1
     7      5      6 1
     8      5      7 1
     9      5     15 1
    10      7      8 1
    11      7      9 1
    12      7     14 1
    13      9     10 1
    14      9     11 1
    15      9     12 1
    16     12     13 1
    17     15     16 1
    18     17     18 1
    19     19     20 1
    20     19     21 1
    21     19     33 1
    22     21     22 1
    23     22     23 1
    24     22     24 1
    25     22     29 1
    26     24     25 1
    27     24     26 1
    28     24     27 1
    29     27     28 1
    30     29     30 1
    31     29     31 1
    32     29     33 1
    33     31     32 1
    34     33     34 1
    35     33     35 1
    36     35     36 1
    37     37     38 1
    38     37     43 1
    39     37     54 1
    40     38     39 1
    41     38     40 1
    42     38     41 1
    43     41     42 1
    44     43     44 1
    45     43     45 1
    46     43     57 1
    47     45     46 1
    48     45     47 1
    49     45     55 1
    50     47     48 1
    51     47     49 1
    52     47     54 1
    53     49     50 1
    54     49     51 1
    55     49     52 1
    56     52     53 1
    57     55     56 1
    58     57     58 1
    59     59     60 1
    60     59     72 1
    61     59     76 1
    62     60     61 1
    63     61     62 1
    64     61     63 1
    65     61     68 1
    66     63     64 1
    67     63     65 1
    68     63     66 1
    69     66     67 1
    70     68     69 1
    71     68     70 1
    72     68     72 1
    73     70     71 1
    74     72     73 1
    75     72     74 1
    76     74     75 1
    77     76     77 1
    78     76     78 1
    79     76     79 1
    80     79     80 1
    81     81     82 1
    82     81     87 1
    83     81     98 1
    84     82     83 1
    85     82     84 1
    86     82     85 1
    87     85     86 1
    88     87     88 1
    89     87     89 1
    90     87    101 1
    91     89     90 1
    92     89     91 1
    93     89     99 1
    94     91     92 1
    95     91     93 1
    96     91     98 1
    97     93     94 1
    98     93     95 1
    99     93     96 1
   100     96     97 1
   101     99    100 1
   102    101    102 1
   103    103    104 1
   104    103    116 1
   105    103    120 1
   106    104    105 1
   107    105    106 1
   108    105    107 1
   109    105    112 1
   110    107    108 1
   111    107    109 1
   112    107    110 1
   113    110    111 1
   114    112    113 1
   115    112    114 1
   116    112    116 1
   117    114    115 1
   118    116    117 1
   119    116    118 1
   120    118    119 1
   121    120    121 1
   122    120    122 1
   123    120    123 1
   124    123    124 1
   125    125    126 1
   126    125    127 1
   127    125    138 1
   128    127    128 1
   129    127    129 1
   130    127    141 1
   131    129    130 1
   132    129    131 1
   133    129    139 1
   134    131    132 1
   135    131    133 1
   136    131    138 1
   137    133    134 1
   138    133    135 1
   139    133    136 1
   140    136    137 1
   141    139    140 1
   142    141    142 1
   143    143    144 1
   144    143    145 1
   145    143    157 1
   146    145    146 1
   147    146    147 1
   148    146    148 1
   149    146    153 1
   150    148    149 1
   151    148    150 1
   152    148    151 1
   153    151    152 1
   154    153    154 1
   155    153    155 1
   156    153    157 1
   157    155    156 1
   158    157    158 1
   159    157    159 1
   160    159    160 1
   161    161    162 1
   162    161    167 1
   163    161    178 1
   164    162    163 1
   165    162    164 1
   166    162    165 1
   167    165    166 1
   168    167    168 1
   169    167    169 1
   170    167    181 1
   171    169    170 1
   172    169    171 1
   173    169    179 1
   174    171    172 1
   175    171    173 1
   176    171    178 1
   177    173    174 1
   178    173    175 1
   179    173    176 1
   180    176    177 1
   181    179    180 1
   182    181    182 1
   183    183    184 1
   184    183    196 1
   185    183    200 1
   186    184    185 1
   187    185    186 1
   188    185    187 1
   189    185    192 1
   190    187    188 1
   191    187    189 1
   192    187    190 1
   193    190    191 1
   194    192    193 1
   195    192    194 1
   196    192    196 1
   197    194    195 1
   198    196    197 1
   199    196    198 1
   200    198    199 1
   201    200    201 1
   202    200    202 1
   203    200    203 1
   204    203    204 1
   205    205    206 1
   206    205    211 1
   207    205    222 1
   208    206    207 1
   209    206    208 1
   210    206    209 1
   211    209    210 1
   212    211    212 1
   213    211    213 1
   214    211    225 1
   215    213    214 1
   216    213    215 1
   217    213    223 1
   218    215    216 1
   219    215    217 1
   220    215    222 1
   221    217    218 1
   222    217    219 1
   223    217    220 1
   224    220    221 1
   225    223    224 1
   226    225    226 1
   227    227    228 1
   228    227    240 1
   229    227    244 1
   230    228    229 1
   231    229    230 1
   232    229    231 1
   233    229    236 1
   234    231    232 1
   235    231    233 1
   236    231    234 1
   237    234    235 1
   238    236    237 1
   239    236    238 1
   240    236    240 1
   241    238    239 1
   242    240    241 1
   243    240    242 1
   244    242    243 1
   245    244    245 1
   246    244    246 1
   247    244    247 1
   248    247    248 1
   249    249    250 1
   250    249    251 1
   251    249    262 1
   252    251    252 1
   253    251    253 1
   254    251    265 1
   255    253    254 1
   256    253    255 1
   257    253    263 1
   258    255    256 1
   259    255    257 1
   260    255    262 1
   261    257    258 1
   262    257    259 1
   263    257    260 1
   264    260    261 1
   265    263    264 1
   266    265    266 1
   267    267    268 1
   268    267    269 1
   269    267    281 1
   270    269    270 1
   271    270    271 1
   272    270    272 1
   273    270    277 1
   274    272    273 1
   275    272    274 1
   276    272    275 1
   277    275    276 1
   278    277    278 1
   279    277    279 1
   280    277    281 1
   281    279    280 1
   282    281    282 1
   283    281    283 1
   284    283    284 1
   285    285    286 1
   286    285    287 1
   287    285    298 1
   288    287    288 1
   289    287    289 1
   290    287    301 1
   291    289    290 1
   292    289    291 1
   293    289    299 1
   294    291    292 1
   295    291    293 1
   296    291    298 1
   297    293    294 1
   298    293    295 1
   299    293    296 1
   300    296    297 1
   301    299    300 1
   302    301    302 1
   303    303    304 1
   304    303    305 1
   305    303    317 1
   306    305    306 1
   307    306    307 1
   308    306    308 1
   309    306    313 1
   310    308    309 1
   311    308    310 1
   312    308    311 1
   313    311    312 1
   314    313    314 1
   315    313    315 1
   316    313    317 1
   317    315    316 1
   318    317    318 1
   319    317    319 1
   320    319    320 1
   321    321    322 1
   322    322    323 1
   323    322    324 1
   324    322    335 1
   325    324    325 1
   326    324    326 1
   327    324    338 1
   328    326    327 1
   329    326    328 1
   330    326    336 1
   331    328    329 1
   332    328    330 1
   333    328    335 1
   334    330    331 1
   335    330    332 1
   336    330    333 1
   337    333    334 1
   338    336    337 1
   339    338    339 1
   340    340    341 1
   341    341    342 1
   342    341    343 1
   343    341    355 1
   344    343    344 1
   345    344    345 1
   346    344    346 1
   347    344    351 1
   348    346    347 1
   349    346    348 1
   350    346    349 1
   351    349    350 1
   352    351    352 1
   353    351    353 1
   354    351    355 1
   355    353    354 1
   356    355    356 1
   357    355    357 1
   358    357    358 1
   359    359    360 1
   360    359    371 1
   361    359    376 1
   362    360    361 1
   363    360    362 1
   364    360    374 1
   365    362    363 1
   366    362    364 1
   367    362    372 1
   368    364    365 1
   369    364    366 1
   370    364    371 1
   371    366    367 1
   372    366    368 1
   373    366    369 1
   374    369    370 1
   375    372    373 1
   376    374    375 1
   377    376    377 1
   378    376    378 1
   379    376    379 1
   380    380    381 1
   381    380    393 1
   382    380    397 1
   383    381    382 1
   384    382    383 1
   385    382    384 1
   386    382    389 1
   387    384    385 1
   388    384    386 1
   389    384    387 1
   390    387    388 1
   391    389    390 1
   392    389    391 1
   393    389    393 1
   394    391    392 1
   395    393    394 1
   396    393    395 1
   397    395    396 1
   398    397    398 1
   399    397    399 1
   400    397    400 1
   401    401    402 1
   402    401    413 1
   403    401    418 1
   404    402    403 1
   405    402    404 1
   406    402    416 1
   407    404    405 1
   408    404    406 1
   409    404    414 1
   410    406    407 1
   411    406    408 1
   412    406    413 1
   413    408    409 1
   414    408    410 1
   415    408    411 1
   416    411    412 1
   417    414    415 1
   418    416    417 1
   419    418    419 1
   420    418    420 1
   421    418    421 1
   422    422    423 1
   423    422    435 1
   424    422    439 1
   425    423    424 1
   426    424    425 1
   427    424    426 1
   428    424    431 1
   429    426    427 1
   430    426    428 1
   431    426    429 1
   432    429    430 1
   433    431    432 1
   434    431    433 1
   435    431    435 1
   436    433    434 1
   437    435    436 1
   438    435    437 1
   439    437    438 1
   440    439    440 1
   441    439    441 1
   442    439    442 1
   443    443    444 1
   444    444    445 1
   445    444    446 1
   446    444    457 1
   447    446    447 1
   448    446    448 1
   449    446    460 1
   450    448    449 1
   451    448    450 1
   452    448    458 1
   453    450    451 1
   454    450    452 1
   455    450    457 1
   456    452    453 1
   457    452    454 1
   458    452    455 1
   459    455    456 1
   460    458    459 1
   461    460    461 1
   462    462    463 1
   463    463    464 1
   464    463    465 1
   465    463    477 1
   466    465    466 1
   467    466    467 1
   468    466    468 1
   469    466    473 1
   470    468    469 1
   471    468    470 1
   472    468    471 1
   473    471    472 1
   474    473    474 1
   475    473    475 1
   476    473    477 1
   477    475    476 1
   478    477    478 1
   479    477    479 1
   480    479    480 1
   481    481    482 1
   482    481    493 1
   483    481    498 1
   484    482    483 1
   485    482    484 1
   486    482    496 1
   487    484    485 1
   488    484    486 1
   489    484    494 1
   490    486    487 1
   491    486    488 1
   492    486    493 1
   493    488    489 1
   494    488    490 1
   495    488    491 1
   496    491    492 1
   497    494    495 1
   498    496    497 1
   499    498    499 1
   500    498    500 1
   501    498    501 1
   502    502    503 1
   503    502    515 1
   504    502    519 1
   505    503    504 1
   506    504    505 1
   507    504    506 1
   508    504    511 1
   509    506    507 1
   510    506    508 1
   511    506    509 1
   512    509    510 1
   513    511    512 1
   514    511    513 1
   515    511    515 1
   516    513    514 1
   517    515    516 1
   518    515    517 1
   519    517    518 1
   520    519    520 1
   521    519    521 1
   522    519    522 1
   523    523    524 1
   524    523    535 1
   525    523    540 1
   526    524    525 1
   527    524    526 1
   528    524    538 1
   529    526    527 1
   530    526    528 1
   531    526    536 1
   532    528    529 1
   533    528    530 1
   534    528    535 1
   535    530    531 1
   536    530    532 1
   537    530    533 1
   538    533    534 1
   539    536    537 1
   540    538    539 1
   541    540    541 1
   542    540    542 1
   543    540    543 1
   544    544    545 1
   545    544    557 1
   546    544    561 1
   547    545    546 1
   548    546    547 1
   549    546    548 1
   550    546    553 1
   551    548    549 1
   552    548    550 1
   553    548    551 1
   554    551    552 1
   555    553    554 1
   556    553    555 1
   557    553    557 1
   558    555    556 1
   559    557    558 1
   560    557    559 1
   561    559    560 1
   562    561    562 1
   563    561    563 1
   564    561    564 1
   565    565    566 1
   566    566    567 1
   567    566    568 1
   568    566    579 1
   569    568    569 1
   570    568    570 1
   571    568    582 1
   572    570    571 1
   573    570    572 1
   574    570    580 1
   575    572    573 1
   576    572    574 1
   577    572    579 1
   578    574    575 1
   579    574    576 1
   580    574    577 1
   581    577    578 1
   582    580    581 1
   583    582    583 1
   584    584    585 1
   585    585    586 1
   586    585    587 1
   587    585    599 1
   588    587    588 1
   589    588    589 1
   590    588    590 1
   591    588    595 1
   592    590    591 1
   593    590    592 1
   594    590    593 1
   595    593    594 1
   596    595    596 1
   597    595    597 1
   598    595    599 1
   599    597    598 1
   600    599    600 1
   601    599    601 1
   602    601    602 1
   603    603    604 1
   604    604    605 1
   605    604    606 1
   606    604    617 1
   607    606    607 1
   608    606    608 1
   609    606    620 1
   610    608    609 1
   611    608    610 1
   612    608    618 1
   613    610    611 1
   614    610    612 1
   615    610    617 1
   616    612    613 1
   617    612    614 1
   618    612    615 1
   619    615    616 1
   620    618    619 1
   621    620    621 1
   622    622    623 1
   623    623    624 1
   624    623    625 1
   625    623    637 1
   626    625    626 1
   627    626    627 1
   628    626    628 1
   629    626    633 1
   630    628    629 1
   631    628    630 1
   632    628    631 1
   633    631    632 1
   634    633    634 1
   635    633    635 1
   636    633    637 1
   637    635    636 1
   638    637    638 1
   639    637    639 1
   640    639    640 1
   641    641    642 1
   642    641    643 1
   643    641    654 1
   644    643    644 1
   645    643    645 1
   646    643    657 1
   647    645    646 1
   648    645    647 1
   649    645    655 1
   650    647    648 1
   651    647    649 1
   652    647    654 1
   653    649    650 1
   654    649    651 1
   655    649    652 1
   656    652    653 1
   657    655    656 1
   658    658    659 1
   659    658    660 1
   660    658    672 1
   661    660    661 1
   662    661    662 1
   663    661    663 1
   664    661    668 1
   665    663    664 1
   666    663    665 1
   667    663    666 1
   668    666    667 1
   669    668    669 1
   670    668    670 1
   671    668    672 1
   672    670    671 1
   673    672    673 1
   674    672    674 1
   675    675    676 1
   676    676    677 1
   677    676    682 1
   678    676    693 1
   679    677    678 1
   680    677    679 1
   681    677    680 1
   682    680    681 1
   683    682    683 1
   684    682    684 1
   685    682    696 1
   686    684    685 1
   687    684    686 1
   688    684    694 1
   689    686    687 1
   690    686    688 1
   691    686    693 1
   692    688    689 1
   693    688    690 1
   694    688    691 1
   695    691    692 1
   696    694    695 1
   697    696    697 1
   698    698    699 1
   699    699    700 1
   700    699    712 1
   701    699    716 1
   702    700    701 1
   703    701    702 1
   704    701    703 1
   705    701    708 1
   706    703    704 1
   707    703    705 1
   708    703    706 1
   709    706    707 1
   710    708    709 1
   711    708    710 1
   712    708    712 1
   713    710    711 1
   714    712    713 1
   715    712    714 1
   716    714    715 1
   717    716    717 1
   718    716    718 1
   719    716    719 1
   720    719    720 1
   721    721    722 1
   722    722    723 1
   723    722    728 1
   724    722    739 1
   725    723    724 1
   726    723    725 1
   727    723    726 1
   728    726    727 1
   729    728    729 1
   730    728    730 1
   731    728    742 1
   732    730    731 1
   733    730    732 1
   734    730    740 1
   735    732    733 1
   736    732    734 1
   737    732    739 1
   738    734    735 1
   739    734    736 1
   740    734    737 1
   741    737    738 1
   742    740    741 1
   743    742    743 1
   744    744    745 1
   745    745    746 1
   746    745    758 1
   747    745    762 1
   748    746    747 1
   749    747    748 1
   750    747    749 1
   751    747    754 1
   752    749    750 1
   753    749    751 1
   754    749    752 1
   755    752    753 1
   756    754    755 1
   757    754    756 1
   758    754    758 1
   759    756    757 1
   760    758    759 1
   761    758    760 1
   762    760    761 1
   763    762    763 1
   764    762    764 1
   765    762    765 1
   766    765    766 1
   767    767    768 1
   768    767    769 1
   769    767    780 1
   770    769    770 1
   771    769    771 1
   772    769    783 1
   773    771    772 1
   774    771    773 1
   775    771    781 1
   776    773    774 1
   777    773    775 1
   778    773    780 1
   779    775    776 1
   780    775    777 1
   781    775    778 1
   782    778    779 1
   783    781    782 1
   784    784    785 1
   785    784    786 1
   786    784    798 1
   787    786    787 1
   788    787    788 1
   789    787    789 1
   790    787    794 1
   791    789    790 1
   792    789    791 1
   793    789    792 1
   794    792    793 1
   795    794    795 1
   796    794    796 1
   797    794    798 1
   798    796    797 1
   799    798    799 1
   800    798    800 1
   801    801    802 1
   802    802    803 1
   803    802    808 1
   804    802    819 1
   805    803    804 1
   806    803    805 1
   807    803    806 1
   808    806    807 1
   809    808    809 1
   810    808    810 1
   811    808    822 1
   812    810    811 1
   813    810    812 1
   814    810    820 1
   815    812    813 1
   816    812    814 1
   817    812    819 1
   818    814    815 1
   819    814    816 1
   820    814    817 1
   821    817    818 1
   822    820    821 1
   823    822    823 1
   824    824    825 1
   825    825    826 1
   826    825    838 1
   827    825    842 1
   828    826    827 1
   829    827    828 1
   830    827    829 1
   831    827    834 1
   832    829    830 1
   833    829    831 1
   834    829    832 1
   835    832    833 1
   836    834    835 1
   837    834    836 1
   838    834    838 1
   839    836    837 1
   840    838    839 1
   841    838    840 1
   842    840    841 1
   843    842    843 1
   844    842    844 1
   845    842    845 1
   846    845    846 1
   847    847    848 1
   848    848    849 1
   849    848    854 1
   850    848    865 1
   851    849    850 1
   852    849    851 1
   853    849    852 1
   854    852    853 1
   855    854    855 1
   856    854    856 1
   857    854    868 1
   858    856    857 1
   859    856    858 1
   860    856    866 1
   861    858    859 1
   862    858    860 1
   863    858    865 1
   864    860    861 1
   865    860    862 1
   866    860    863 1
   867    863    864 1
   868    866    867 1
   869    868    869 1
   870    870    871 1
   871    871    872 1
   872    871    884 1
   873    871    888 1
   874    872    873 1
   875    873    874 1
   876    873    875 1
   877    873    880 1
   878    875    876 1
   879    875    877 1
   880    875    878 1
   881    878    879 1
   882    880    881 1
   883    880    882 1
   884    880    884 1
   885    882    883 1
   886    884    885 1
   887    884    886 1
   888    886    887 1
   889    888    889 1
   890    888    890 1
   891    888    891 1
   892    891    892 1
   893    893    894 1
   894    893    895 1
   895    893    906 1
   896    895    896 1
   897    895    897 1
   898    895    909 1
   899    897    898 1
   900    897    899 1
   901    897    907 1
   902    899    900 1
   903    899    901 1
   904    899    906 1
   905    901    902 1
   906    901    903 1
   907    901    904 1
   908    904    905 1
   909    907    908 1
   910    910    911 1
   911    910    912 1
   912    910    924 1
   913    912    913 1
   914    913    914 1
   915    913    915 1
   916    913    920 1
   917    915    916 1
   918    915    917 1
   919    915    918 1
   920    918    919 1
   921    920    921 1
   922    920    922 1
   923    920    924 1
   924    922    923 1
   925    924    925 1
   926    924    926 1
   927    927    928 1
   928    927    929 1
   929    927    940 1
   930    929    930 1
   931    929    931 1
   932    929    943 1
   933    931    932 1
   934    931    933 1
   935    931    941 1
   936    933    934 1
   937    933    935 1
   938    933    940 1
   939    935    936 1
   940    935    937 1
   941    935    938 1
   942    938    939 1
   943    941    942 1
   944    944    945 1
   945    944    946 1
   946    944    958 1
   947    946    947 1
   948    947    948 1
   949    947    949 1
   950    947    954 1
   951    949    950 1
   952    949    951 1
   953    949    952 1
   954    952    953 1
   955    954    955 1
   956    954    956 1
   957    954    958 1
   958    956    957 1
   959    958    959 1
   960    958    960 1
   961    961    962 1
   962    961    963 1
   963    961    976 1
   964    963    964 1
   965    963    965 1
   966    963    967 1
   967    965    966 1
   968    967    968 1
   969    967    969 1
   970    967    977 1
   971    969    970 1
   972    969    971 1
   973    969    976 1
   974    971    972 1
   975    971    973 1
   976    971    974 1
   977    974    975 1
   978    978    979 1
   979    978    980 1
   980    978    990 1
   981    980    981 1
   982    981    982 1
   983    981    983 1
   984    981    988 1
   985    983    984 1
   986    983    985 1
   987    983    986 1
   988    986    987 1
   989    988    989 1
   990    988    990 1
   991    988    994 1
   992    990    991 1
   993    990    992 1
   994    992    993 1
   995    995    996 1
   996    995   1001 1
   997    995   1012 1
   998    996    997 1
   999    996    998 1
  1000    996    999 1
  1001    999   1000 1
  1002   1001   1002 1
  1003   1001   1003 1
  1004   1001   1015 1
  1005   1003   1004 1
  1006   1003   1005 1
  1007   1003   1013 1
  1008   1005   1006 1
  1009   1005   1007 1
  1010   1005   1012 1
  1011   1007   1008 1
  1012   1007   1009 1
  1013   1007   1010 1
  1014   1010   1011 1
  1015   1013   1014 1
  1016   1016   1017 1
  1017   1016   1022 1
  1018   1016   1034 1
  1019   1017   1018 1
  1020   1017   1019 1
  1021   1017   1020 1
  1022   1020   1021 1
  1023   1022   1023 1
  1024   1023   1024 1
  1025   1023   1025 1
  1026   1023   1030 1
  1027   1025   1026 1
  1028   1025   1027 1
  1029   1025   1028 1
  1030   1028   1029 1
  1031   1030   1031 1
  1032   1030   1032 1
  1033   1030   1034 1
  1034   1032   1033 1
  1035   1034   1035 1
  1036   1034   1036 1
  1037   1037   1038 1
  1038   1037   1043 1
  1039   1037   1054 1
  1040   1038   1039 1
  1041   1038   1040 1
  1042   1038   1041 1
  1043   1041   1042 1
  1044   1043   1044 1
  1045   1043   1045 1
  1046   1043   1057 1
  1047   1045   1046 1
  1048   1045   1047 1
  1049   1045   1055 1
  1050   1047   1048 1
  1051   1047   1049 1
  1052   1047   1054 1
  1053   1049   1050 1
  1054   1049   1051 1
  1055   1049   1052 1
  1056   1052   1053 1
  1057   1055   1056 1
  1058   1058   1059 1
  1059   1058   1064 1
  1060   1058   1076 1
  1061   1059   1060 1
  1062   1059   1061 1
  1063   1059   1062 1
  1064   1062   1063 1
  1065   1064   1065 1
  1066   1065   1066 1
  1067   1065   1067 1
  1068   1065   1072 1
  1069   1067   1068 1
  1070   1067   1069 1
  1071   1067   1070 1
  1072   1070   1071 1
  1073   1072   1073 1
  1074   1072   1074 1
  1075   1072   1076 1
  1076   1074   1075 1
  1077   1076   1077 1
  1078   1076   1078 1
  1079   1079   1080 1
  1080   1079   1081 1
  1081   1079   1094 1
  1082   1081   1082 1
  1083   1081   1083 1
  1084   1081   1085 1
  1085   1083   1084 1
  1086   1085   1086 1
  1087   1085   1087 1
  1088   1085   1095 1
  1089   1087   1088 1
  1090   1087   1089 1
  1091   1087   1094 1
  1092   1089   1090 1
  1093   1089   1091 1
  1094   1089   1092 1
  1095   1092   1093 1
  1096   1096   1097 1
  1097   1096   1098 1
  1098   1096   1108 1
  1099   1098   1099 1
  1100   1099   1100 1
  1101   1099   1101 1
  1102   1099   1106 1
  1103   1101   1102 1
  1104   1101   1103 1
  1105   1101   1104 1
  1106   1104   1105 1
  1107   1106   1107 1
  1108   1106   1108 1
  1109   1106   1112 1
  1110   1108   1109 1
  1111   1108   1110 1
  1112   1110   1111 1
  1113   1113   1114 1
  1114   1113   1119 1
  1115   1113   1130 1
  1116   1114   1115 1
  1117   1114   1116 1
  1118   1114   1117 1
  1119   1117   1118 1
  1120   1119   1120 1
  1121   1119   1121 1
  1122   1119   1133 1
  1123   1121   1122 1
  1124   1121   1123 1
  1125   1121   1131 1
  1126   1123   1124 1
  1127   1123   1125 1
  1128   1123   1130 1
  1129   1125   1126 1
  1130   1125   1127 1
  1131   1125   1128 1
  1132   1128   1129 1
  1133   1131   1132 1
  1134   1134   1135 1
  1135   1134   1140 1
  1136   1134   1152 1
  1137   1135   1136 1
  1138   1135   1137 1
  1139   1135   1138 1
  1140   1138   1139 1
  1141   1140   1141 1
  1142   1141   1142 1
  1143   1141   1143 1
  1144   1141   1148 1
  1145   1143   1144 1
  1146   1143   1145 1
  1147   1143   1146 1
  1148   1146   1147 1
  1149   1148   1149 1
  1150   1148   1150 1
  1151   1148   1152 1
  1152   1150   1151 1
  1153   1152   1153 1
  1154   1152   1154 1
  1155   1155   1156 1
  1156   1155   1161 1
  1157   1155   1172 1
  1158   1156   1157 1
  1159   1156   1158 1
  1160   1156   1159 1
  1161   1159   1160 1
  1162   1161   1162 1
  1163   1161   1163 1
  1164   1161   1175 1
  1165   1163   1164 1
  1166   1163   1165 1
  1167   1163   1173 1
  1168   1165   1166 1
  1169   1165   1167 1
  1170   1165   1172 1
  1171   1167   1168 1
  1172   1167   1169 1
  1173   1167   1170 1
  1174   1170   1171 1
  1175   1173   1174 1
  1176   1176   1177 1
  1177   1176   1182 1
  1178   1176   1194 1
  1179   1177   1178 1
  1180   1177   1179 1
  1181   1177   1180 1
  1182   1180   1181 1
  1183   1182   1183 1
  1184   1183   1184 1
  1185   1183   1185 1
  1186   1183   1190 1
  1187   1185   1186 1
  1188   1185   1187 1
  1189   1185   1188 1
  1190   1188   1189 1
  1191   1190   1191 1
  1192   1190   1192 1
  1193   1190   1194 1
  1194   1192   1193 1
  1195   1194   1195 1
  1196   1194   1196 1
  1197   1197   1198 1
  1198   1197   1199 1
  1199   1197   1212 1
  1200   1199   1200 1
  1201   1199   1201 1
  1202   1199   1203 1
  1203   1201   1202 1
  1204   1203   1204 1
  1205   1203   1205 1
  1206   1203   1213 1
  1207   1205   1206 1
  1208   1205   1207 1
  1209   1205   1212 1
  1210   1207   1208 1
  1211   1207   1209 1
  1212   1207   1210 1
  1213   1210   1211 1
  1214   1214   1215 1
  1215   1214   1216 1
  1216   1214   1226 1
  1217   1216   1217 1
  1218   1217   1218 1
  1219   1217   1219 1
  1220   1217   1224 1
  1221   1219   1220 1
  1222   1219   1221 1
  1223   1219   1222 1
  1224   1222   1223 1
  1225   1224   1225 1
  1226   1224   1226 1
  1227   1224   1230 1
  1228   1226   1227 1
  1229   1226   1228 1
  1230   1228   1229 1
  1231   1231   1232 1
  1232   1231   1233 1
  1233   1231   1246 1
  1234   1233   1234 1
  1235   1233   1235 1
  1236   1233   1237 1
  1237   1235   1236 1
  1238   1237   1238 1
  1239   1237   1239 1
  1240   1237   1247 1
  1241   1239   1240 1
  1242   1239   1241 1
  1243   1239   1246 1
  1244   1241   1242 1
  1245   1241   1243 1
  1246   1241   1244 1
  1247   1244   1245 1
  1248   1248   1249 1
  1249   1248   1250 1
  1250   1248   1260 1
  1251   1250   1251 1
  1252   1251   1252 1
  1253   1251   1253 1
  1254   1251   1258 1
  1255   1253   1254 1
  1256   1253   1255 1
  1257   1253   1256 1
  1258   1256   1257 1
  1259   1258   1259 1
  1260   1258   1260 1
  1261   1258   1264 1
  1262   1260   1261 1
  1263   1260   1262 1
  1264   1262   1263 1
  1265   1265   1266 1
  1266   1265   1271 1
  1267   1265   1284 1
  1268   1266   1267 1
  1269   1266   1268 1
  1270   1266   1269 1
  1271   1269   1270 1
  1272   1271   1272 1
  1273   1271   1273 1
  1274   1271   1275 1
  1275   1273   1274 1
  1276   1275   1276 1
  1277   1275   1277 1
  1278   1275   1285 1
  1279   1277   1278 1
  1280   1277   1279 1
  1281   1277   1284 1
  1282   1279   1280 1
  1283   1279   1281 1
  1284   1279   1282 1
  1285   1282   1283 1
  1286   1286   1287 1
  1287   1286   1292 1
  1288   1286   1302 1
  1289   1287   1288 1
  1290   1287   1289 1
  1291   1287   1290 1
  1292   1290   1291 1
  1293   1292   1293 1
  1294   1293   1294 1
  1295   1293   1295 1
  1296   1293   1300 1
  1297   1295   1296 1
  1298   1295   1297 1
  1299   1295   1298 1
  1300   1298   1299 1
  1301   1300   1301 1
  1302   1300   1302 1
  1303   1300   1306 1
  1304   1302   1303 1
  1305   1302   1304 1
  1306   1304   1305 1
  1307   1307   1308 1
  1308   1307   1313 1
  1309   1307   1326 1
  1310   1308   1309 1
  1311   1308   1310 1
  1312   1308   1311 1
  1313   1311   1312 1
  1314   1313   1314 1
  1315   1313   1315 1
  1316   1313   1317 1
  1317   1315   1316 1
  1318   1317   1318 1
  1319   1317   1319 1
  1320   1317   1327 1
  1321   1319   1320 1
  1322   1319   1321 1
  1323   1319   1326 1
  1324   1321   1322 1
  1325   1321   1323 1
  1326   1321   1324 1
  1327   1324   1325 1
  1328   1328   1329 1
  1329   1328   1334 1
  1330   1328   1344 1
  1331   1329   1330 1
  1332   1329   1331 1
  1333   1329   1332 1
  1334   1332   1333 1
  1335   1334   1335 1
  1336   1335   1336 1
  1337   1335   1337 1
  1338   1335   1342 1
  1339   1337   1338 1
  1340   1337   1339 1
  1341   1337   1340 1
  1342   1340   1341 1
  1343   1342   1343 1
  1344   1342   1344 1
  1345   1342   1348 1
  1346   1344   1345 1
  1347   1344   1346 1
  1348   1346   1347 1
  1349   1349   1350 1
  1350   1349   1355 1
  1351   1349   1368 1
  1352   1350   1351 1
  1353   1350   1352 1
  1354   1350   1353 1
  1355   1353   1354 1
  1356   1355   1356 1
  1357   1355   1357 1
  1358   1355   1359 1
  1359   1357   1358 1
  1360   1359   1360 1
  1361   1359   1361 1
  1362   1359   1369 1
  1363   1361   1362 1
  1364   1361   1363 1
  1365   1361   1368 1
  1366   1363   1364 1
  1367   1363   1365 1
  1368   1363   1366 1
  1369   1366   1367 1
  1370   1370   1371 1
  1371   1370   1376 1
  1372   1370   1386 1
  1373   1371   1372 1
  1374   1371   1373 1
  1375   1371   1374 1
  1376   1374   1375 1
  1377   1376   1377 1
  1378   1377   1378 1
  1379   1377   1379 1
  1380   1377   1384 1
  1381   1379   1380 1
  1382   1379   1381 1
  1383   1379   1382 1
  1384   1382   1383 1
  1385   1384   1385 1
  1386   1384   1386 1
  1387   1384   1390 1
  1388   1386   1387 1
  1389   1386   1388 1
  1390   1388   1389 1
  1391   1391   1392 1
  1392   1391   1397 1
  1393   1391   1410 1
  1394   1392   1393 1
  1395   1392   1394 1
  1396   1392   1395 1
  1397   1395   1396 1
  1398   1397   1398 1
  1399   1397   1399 1
  1400   1397   1401 1
  1401   1399   1400 1
  1402   1401   1402 1
  1403   1401   1403 1
  1404   1401   1411 1
  1405   1403   1404 1
  1406   1403   1405 1
  1407   1403   1410 1
  1408   1405   1406 1
  1409   1405   1407 1
  1410   1405   1408 1
  1411   1408   1409 1
  1412   1412   1413 1
  1413   1412   1418 1
  1414   1412   1428 1
  1415   1413   1414 1
  1416   1413   1415 1
  1417   1413   1416 1
  1418   1416   1417 1
  1419   1418   1419 1
  1420   1419   1420 1
  1421   1419   1421 1
  1422   1419   1426 1
  1423   1421   1422 1
  1424   1421   1423 1
  1425   1421   1424 1
  1426   1424   1425 1
  1427   1426   1427 1
  1428   1426   1428 1
  1429   1426   1432 1
  1430   1428   1429 1
  1431   1428   1430 1
  1432   1430   1431 1
  1433   1433   1434 1
  1434   1433   1439 1
  1435   1433   1449 1
  1436   1434   1435 1
  1437   1434   1436 1
  1438   1434   1437 1
  1439   1437   1438 1
  1440   1439   1440 1
  1441   1439   1441 1
  1442   1439   1443 1
  1443   1441   1442 1
  1444   1443   1444 1
  1445   1443   1445 1
  1446   1443   1447 1
  1447   1445   1446 1
  1448   1447   1448 1
  1449   1447   1449 1
  1450   1447   1450 1
  1451   1450   1451 1
  1452   1450   1452 1
  1453   1450   1453 1
  1454   1454   1455 1
  1455   1454   1460 1
  1456   1454   1467 1
  1457   1455   1456 1
  1458   1455   1457 1
  1459   1455   1458 1
  1460   1458   1459 1
  1461   1460   1461 1
  1462   1461   1462 1
  1463   1461   1463 1
  1464   1461   1471 1
  1465   1463   1464 1
  1466   1463   1465 1
  1467   1463   1467 1
  1468   1465   1466 1
  1469   1467   1468 1
  1470   1467   1469 1
  1471   1469   1470 1
  1472   1471   1472 1
  1473   1471   1473 1
  1474   1471   1474 1
  1475   1475   1476 1
  1476   1475   1481 1
  1477   1475   1491 1
  1478   1476   1477 1
  1479   1476   1478 1
  1480   1476   1479 1
  1481   1479   1480 1
  1482   1481   1482 1
  1483   1481   1483 1
  1484   1481   1485 1
  1485   1483   1484 1
  1486   1485   1486 1
  1487   1485   1487 1
  1488   1485   1489 1
  1489   1487   1488 1
  1490   1489   1490 1
  1491   1489   1491 1
  1492   1489   1492 1
  1493   1492   1493 1
  1494   1492   1494 1
  1495   1492   1495 1
  1496   1496   1497 1
  1497   1496   1502 1
  1498   1496   1509 1
  1499   1497   1498 1
  1500   1497   1499 1
  1501   1497   1500 1
  1502   1500   1501 1
  1503   1502   1503 1
  1504   1503   1504 1
  1505   1503   1505 1
  1506   1503   1513 1
  1507   1505   1506 1
  1508   1505   1507 1
  1509   1505   1509 1
  1510   1507   1508 1
  1511   1509   1510 1
  1512   1509   1511 1
  1513   1511   1512 1
  1514   1513   1514 1
  1515   1513   1515 1
  1516   1513   1516 1
  1517   1517   1518 1
  1518   1517   1523 1
  1519   1517   1533 1
  1520   1518   1519 1
  1521   1518   1520 1
  1522   1518   1521 1
  1523   1521   1522 1
  1524   1523   1524 1
  1525   1523   1525 1
  1526   1523   1527 1
  1527   1525   1526 1
  1528   1527   1528 1
  1529   1527   1529 1
  1530   1527   1531 1
  1531   1529   1530 1
  1532   1531   1532 1
  1533   1531   1533 1
  1534   1531   1534 1
  1535   1534   1535 1
  1536   1534   1536 1
  1537   1534   1537 1
  1538   1538   1539 1
  1539   1538   1544 1
  1540   1538   1551 1
  1541   1539   1540 1
  1542   1539   1541 1
  1543   1539   1542 1
  1544   1542   1543 1
  1545   1544   1545 1
  1546   1545   1546 1
  1547   1545   1547 1
  1548   1545   1555 1
  1549   1547   1548 1
  1550   1547   1549 1
  1551   1547   1551 1
  1552   1549   1550 1
  1553   1551   1552 1
  1554   1551   1553 1
  1555   1553   1554 1
  1556   1555   1556 1
  1557   1555   1557 1
  1558   1555   1558 1
  1559   1559   1560 1
  1560   1559   1565 1
  1561   1559   1575 1
  1562   1560   1561 1
  1563   1560   1562 1
  1564   1560   1563 1
  1565   1563   1564 1
  1566   1565   1566 1
  1567   1565   1567 1
  1568   1565   1569 1
  1569   1567   1568 1
  1570   1569   1570 1
  1571   1569   1571 1
  1572   1569   1573 1
  1573   1571   1572 1
  1574   1573   1574 1
  1575   1573   1575 1
  1576   1573   1576 1
  1577   1576   1577 1
  1578   1576   1578 1
  1579   1576   1579 1
  1580   1580   1581 1
  1581   1580   1586 1
  1582   1580   1593 1
  1583   1581   1582 1
  1584   1581   1583 1
  1585   1581   1584 1
  1586   1584   1585 1
  1587   1586   1587 1
  1588   1587   1588 1
  1589   1587   1589 1
  1590   1587   1597 1
  1591   1589   1590 1
  1592   1589   1591 1
  1593   1589   1593 1
  1594   1591   1592 1
  1595   1593   1594 1
  1596   1593   1595 1
  1597   1595   1596 1
  1598   1597   1598 1
  1599   1597   1599 1
  1600   1597   1600 1
  1601   1601   1602 1
  1602   1601   1607 1
  1603   1601   1617 1
  1604   1602   1603 1
  1605   1602   1604 1
  1606   1602   1605 1
  1607   1605   1606 1
  1608   1607   1608 1
  1609   1607   1609 1
  1610   1607   1619 1
  1611   1609   1610 1
  1612   1609   1611 1
  1613   1609   1618 1
  1614   1611   1612 1
  1615   1611   1613 1
  1616   1611   1617 1
  1617   1613   1614 1
  1618   1613   1615 1
  1619   1613   1616 1
  1620   1620   1621 1
  1621   1620   1626 1
  1622   1620   1636 1
  1623   1621   1622 1
  1624   1621   1623 1
  1625   1621   1624 1
  1626   1624   1625 1
  1627   1626   1627 1
  1628   1627   1628 1
  1629   1627   1629 1
  1630   1627   1633 1
  1631   1629   1630 1
  1632   1629   1631 1
  1633   1629   1632 1
  1634   1633   1634 1
  1635   1633   1635 1
  1636   1633   1636 1
  1637   1636   1637 1
  1638   1636   1638 1
  1639   1639   1640 1
  1640   1639   1645 1
  1641   1639   1655 1
  1642   1640   1641 1
  1643   1640   1642 1
  1644   1640   1643 1
  1645   1643   1644 1
  1646   1645   1646 1
  1647   1645   1647 1
  1648   1645   1657 1
  1649   1647   1648 1
  1650   1647   1649 1
  1651   1647   1656 1
  1652   1649   1650 1
  1653   1649   1651 1
  1654   1649   1655 1
  1655   1651   1652 1
  1656   1651   1653 1
  1657   1651   1654 1
  1658   1658   1659 1
  1659   1658   1664 1
  1660   1658   1674 1
  1661   1659   1660 1
  1662   1659   1661 1
  1663   1659   1662 1
  1664   1662   1663 1
  1665   1664   1665 1
  1666   1665   1666 1
  1667   1665   1667 1
  1668   1665   1671 1
  1669   1667   1668 1
  1670   1667   1669 1
  1671   1667   1670 1
  1672   1671   1672 1
  1673   1671   1673 1
  1674   1671   1674 1
  1675   1674   1675 1
  1676   1674   1676 1
  1677   1677   1678 1
  1678   1677   1683 1
  1679   1677   1693 1
  1680   1678   1679 1
  1681   1678   1680 1
  1682   1678   1681 1
  1683   1681   1682 1
  1684   1683   1684 1
  1685   1683   1685 1
  1686   1683   1695 1
  1687   1685   1686 1
  1688   1685   1687 1
  1689   1685   1694 1
  1690   1687   1688 1
  1691   1687   1689 1
  1692   1687   1693 1
  1693   1689   1690 1
  1694   1689   1691 1
  1695   1689   1692 1
  1696   1696   1697 1
  1697   1696   1702 1
  1698   1696   1712 1
  1699   1697   1698 1
  1700   1697   1699 1
  1701   1697   1700 1
  1702   1700   1701 1
  1703   1702   1703 1
  1704   1703   1704 1
  1705   1703   1705 1
  1706   1703   1709 1
  1707   1705   1706 1
  1708   1705   1707 1
  1709   1705   1708 1
  1710   1709   1710 1
  1711   1709   1711 1
  1712   1709   1712 1
  1713   1712   1713 1
  1714   1712   1714 1
  1715   1715   1716 1
  1716   1715   1721 1
  1717   1715   1731 1
  1718   1716   1717 1
  1719   1716   1718 1
  1720   1716   1719 1
  1721   1719   1720 1
  1722   1721   1722 1
  1723   1721   1723 1
  1724   1721   1733 1
  1725   1723   1724 1
  1726   1723   1725 1
  1727   1723   1732 1
  1728   1725   1726 1
  1729   1725   1727 1
  1730   1725   1731 1
  1731   1727   1728 1
  1732   1727   1729 1
  1733   1727   1730 1
  1734   1734   1735 1
  1735   1734   1740 1
  1736   1734   1750 1
  1737   1735   1736 1
  1738   1735   1737 1
  1739   1735   1738 1
  1740   1738   1739 1
  1741   1740   1741 1
  1742   1741   1742 1
  1743   1741   1743 1
  1744   1741   1747 1
  1745   1743   1744 1
  1746   1743   1745 1
  1747   1743   1746 1
  1748   1747   1748 1
  1749   1747   1749 1
  1750   1747   1750 1
  1751   1750   1751 1
  1752   1750   1752 1
  1753   1753   1754 1
  1754   1753   1759 1
  1755   1753   1771 1
  1756   1754   1755 1
  1757   1754   1756 1
  1758   1754   1757 1
  1759   1757   1758 1
  1760   1759   1760 1
  1761   1759   1761 1
  1762   1759   1763 1
  1763   1761   1762 1
  1764   1763   1764 1
  1765   1763   1765 1
  1766   1763   1772 1
  1767   1765   1766 1
  1768   1765   1767 1
  1769   1765   1771 1
  1770   1767   1768 1
  1771   1767   1769 1
  1772   1767   1770 1
  1773   1773   1774 1
  1774   1773   1779 1
  1775   1773   1788 1
  1776   1774   1775 1
  1777   1774   1776 1
  1778   1774   1777 1
  1779   1777   1778 1
  1780   1779   1780 1
  1781   1780   1781 1
  1782   1780   1782 1
  1783   1780   1786 1
  1784   1782   1783 1
  1785   1782   1784 1
  1786   1782   1785 1
  1787   1786   1787 1
  1788   1786   1788 1
  1789   1786   1792 1
  1790   1788   1789 1
  1791   1788   1790 1
  1792   1790   1791 1
  1793   1793   1794 1
  1794   1793   1799 1
  1795   1793   1811 1
  1796   1794   1795 1
  1797   1794   1796 1
  1798   1794   1797 1
  1799   1797   1798 1
  1800   1799   1800 1
  1801   1799   1801 1
  1802   1799   1803 1
  1803   1801   1802 1
  1804   1803   1804 1
  1805   1803   1805 1
  1806   1803   1812 1
  1807   1805   1806 1
  1808   1805   1807 1
  1809   1805   1811 1
  1810   1807   1808 1
  1811   1807   1809 1
  1812   1807   1810 1
  1813   1813   1814 1
  1814   1813   1819 1
  1815   1813   1828 1
  1816   1814   1815 1
  1817   1814   1816 1
  1818   1814   1817 1
  1819   1817   1818 1
  1820   1819   1820 1
  1821   1820   1821 1
  1822   1820   1822 1
  1823   1820   1826 1
  1824   1822   1823 1
  1825   1822   1824 1
  1826   1822   1825 1
  1827   1826   1827 1
  1828   1826   1828 1
  1829   1826   1832 1
  1830   1828   1829 1
  1831   1828   1830 1
  1832   1830   1831 1
  1833   1833   1834 1
  1834   1833   1839 1
  1835   1833   1851 1
  1836   1834   1835 1
  1837   1834   1836 1
  1838   1834   1837 1
  1839   1837   1838 1
  1840   1839   1840 1
  1841   1839   1841 1
  1842   1839   1843 1
  1843   1841   1842 1
  1844   1843   1844 1
  1845   1843   1845 1
  1846   1843   1852 1
  1847   1845   1846 1
  1848   1845   1847 1
  1849   1845   1851 1
  1850   1847   1848 1
  1851   1847   1849 1
  1852   1847   1850 1
  1853   1853   1854 1
  1854   1853   1859 1
  1855   1853   1868 1
  1856   1854   1855 1
  1857   1854   1856 1
  1858   1854   1857 1
  1859   1857   1858 1
  1860   1859   1860 1
  1861   1860   1861 1
  1862   1860   1862 1
  1863   1860   1866 1
  1864   1862   1863 1
  1865   1862   1864 1
  1866   1862   1865 1
  1867   1866   1867 1
  1868   1866   1868 1
  1869   1866   1872 1
  1870   1868   1869 1
  1871   1868   1870 1
  1872   1870   1871 1
  1873   1873   1874 1
  1874   1873   1879 1
  1875   1873   1891 1
  1876   1874   1875 1
  1877   1874   1876 1
  1878   1874   1877 1
  1879   1877   1878 1
  1880   1879   1880 1
  1881   1879   1881 1
  1882   1879   1883 1
  1883   1881   1882 1
  1884   1883   1884 1
  1885   1883   1885 1
  1886   1883   1892 1
  1887   1885   1886 1
  1888   1885   1887 1
  1889   1885   1891 1
  1890   1887   1888 1
  1891   1887   1889 1
  1892   1887   1890 1
  1893   1893   1894 1
  1894   1893   1899 1
  1895   1893   1908 1
  1896   1894   1895 1
  1897   1894   1896 1
  1898   1894   1897 1
  1899   1897   1898 1
  1900   1899   1900 1
  1901   1900   1901 1
  1902   1900   1902 1
  1903   1900   1906 1
  1904   1902   1903 1
  1905   1902   1904 1
  1906   1902   1905 1
  1907   1906   1907 1
  1908   1906   1908 1
  1909   1906   1912 1
  1910   1908   1909 1
  1911   1908   1910 1
  1912   1910   1911 1
  1913   1913   1914 1
  1914   1913   1919 1
  1915   1913   1929 1
  1916   1914   1915 1
  1917   1914   1916 1
  1918   1914   1917 1
  1919   1917   1918 1
  1920   1919   1920 1
  1921   1919   1921 1
  1922   1919   1932 1
  1923   1921   1922 1
  1924   1921   1923 1
  1925   1921   1930 1
  1926   1923   1924 1
  1927   1923   1925 1
  1928   1923   1929 1
  1929   1925   1926 1
  1930   1925   1927 1
  1931   1925   1928 1
  1932   1930   1931 1
  1933   1933   1934 1
  1934   1933   1939 1
  1935   1933   1950 1
  1936   1934   1935 1
  1937   1934   1936 1
  1938   1934   1937 1
  1939   1937   1938 1
  1940   1939   1940 1
  1941   1940   1941 1
  1942   1940   1942 1
  1943   1940   1946 1
  1944   1942   1943 1
  1945   1942   1944 1
  1946   1942   1945 1
  1947   1946   1947 1
  1948   1946   1948 1
  1949   1946   1950 1
  1950   1948   1949 1
  1951   1950   1951 1
  1952   1950   1952 1
  1953   1953   1954 1
  1954   1953   1959 1
  1955   1953   1969 1
  1956   1954   1955 1
  1957   1954   1956 1
  1958   1954   1957 1
  1959   1957   1958 1
  1960   1959   1960 1
  1961   1959   1961 1
  1962   1959   1972 1
  1963   1961   1962 1
  1964   1961   1963 1
  1965   1961   1970 1
  1966   1963   1964 1
  1967   1963   1965 1
  1968   1963   1969 1
  1969   1965   1966 1
  1970   1965   1967 1
  1971   1965   1968 1
  1972   1970   1971 1
  1973   1973   1974 1
  1974   1973   1979 1
  1975   1973   1990 1
  1976   1974   1975 1
  1977   1974   1976 1
  1978   1974   1977 1
  1979   1977   1978 1
  1980   1979   1980 1
  1981   1980   1981 1
  1982   1980   1982 1
  1983   1980   1986 1
  1984   1982   1983 1
  1985   1982   1984 1
  1986   1982   1985 1
  1987   1986   1987 1
  1988   1986   1988 1
  1989   1986   1990 1
  1990   1988   1989 1
  1991   1990   1991 1
  1992   1990   1992 1
  1993   1993   1994 1
  1994   1993   1999 1
  1995   1993   2009 1
  1996   1994   1995 1
  1997   1994   1996 1
  1998   1994   1997 1
  1999   1997   1998 1
  2000   1999   2000 1
  2001   1999   2001 1
  2002   1999   2012 1
  2003   2001   2002 1
  2004   2001   2003 1
  2005   2001   2010 1
  2006   2003   2004 1
  2007   2003   2005 1
  2008   2003   2009 1
  2009   2005   2006 1
  2010   2005   2007 1
  2011   2005   2008 1
  2012   2010   2011 1
  2013   2013   2014 1
  2014   2013   2019 1
  2015   2013   2030 1
  2016   2014   2015 1
  2017   2014   2016 1
  2018   2014   2017 1
  2019   2017   2018 1
  2020   2019   2020 1
  2021   2020   2021 1
  2022   2020   2022 1
  2023   2020   2026 1
  2024   2022   2023 1
  2025   2022   2024 1
  2026   2022   2025 1
  2027   2026   2027 1
  2028   2026   2028 1
  2029   2026   2030 1
  2030   2028   2029 1
  2031   2030   2031 1
  2032   2030   2032 1
  2033   2033   2034 1
  2034   2033   2039 1
  2035   2033   2049 1
  2036   2034   2035 1
  2037   2034   2036 1
  2038   2034   2037 1
  2039   2037   2038 1
  2040   2039   2040 1
  2041   2039   2041 1
  2042   2039   2052 1
  2043   2041   2042 1
  2044   2041   2043 1
  2045   2041   2050 1
  2046   2043   2044 1
  2047   2043   2045 1
  2048   2043   2049 1
  2049   2045   2046 1
  2050   2045   2047 1
  2051   2045   2048 1
  2052   2050   2051 1
  2053   2053   2054 1
  2054   2053   2059 1
  2055   2053   2070 1
  2056   2054   2055 1
  2057   2054   2056 1
  2058   2054   2057 1
  2059   2057   2058 1
  2060   2059   2060 1
  2061   2060   2061 1
  2062   2060   2062 1
  2063   2060   2066 1
  2064   2062   2063 1
  2065   2062   2064 1
  2066   2062   2065 1
  2067   2066   2067 1
  2068   2066   2068 1
  2069   2066   2070 1
  2070   2068   2069 1
  2071   2070   2071 1
  2072   2070   2072 1
  2073   2073   2074 1
  2074   2073   2079 1
  2075   2073   2090 1
  2076   2074   2075 1
  2077   2074   2076 1
  2078   2074   2077 1
  2079   2077   2078 1
  2080   2079   2080 1
  2081   2079   2081 1
  2082   2079   2092 1
  2083   2081   2082 1
  2084   2081   2083 1
  2085   2081   2091 1
  2086   2083   2084 1
  2087   2083   2085 1
  2088   2083   2090 1
  2089   2085   2086 1
  2090   2085   2087 1
  2091   2085   2088 1
  2092   2088   2089 1
  2093   2093   2094 1
  2094   2093   2099 1
  2095   2093   2110 1
  2096   2094   2095 1
  2097   2094   2096 1
  2098   2094   2097 1
  2099   2097   2098 1
  2100   2099   2100 1
  2101   2100   2101 1
  2102   2100   2102 1
  2103   2100   2107 1
  2104   2102   2103 1
  2105   2102   2104 1
  2106   2102   2105 1
  2107   2105   2106 1
  2108   2107   2108 1
  2109   2107   2109 1
  2110   2107   2110 1
  2111   2110   2111 1
  2112   2110   2112 1
  2113   2113   2114 1
  2114   2113   2119 1
  2115   2113   2130 1
  2116   2114   2115 1
  2117   2114   2116 1
  2118   2114   2117 1
  2119   2117   2118 1
  2120   2119   2120 1
  2121   2119   2121 1
  2122   2119   2132 1
  2123   2121   2122 1
  2124   2121   2123 1
  2125   2121   2131 1
  2126   2123   2124 1
  2127   2123   2125 1
  2128   2123   2130 1
  2129   2125   2126 1
  2130   2125   2127 1
  2131   2125   2128 1
  2132   2128   2129 1
  2133   2133   2134 1
  2134   2133   2139 1
  2135   2133   2150 1
  2136   2134   2135 1
  2137   2134   2136 1
  2138   2134   2137 1
  2139   2137   2138 1
  2140   2139   2140 1
  2141   2140   2141 1
  2142   2140   2142 1
  2143   2140   2147 1
  2144   2142   2143 1
  2145   2142   2144 1
  2146   2142   2145 1
  2147   2145   2146 1
  2148   2147   2148 1
  2149   2147   2149 1
  2150   2147   2150 1
  2151   2150   2151 1
  2152   2150   2152 1
  2153   2153   2154 1
  2154   2153   2159 1
  2155   2153   2170 1
  2156   2154   2155 1
  2157   2154   2156 1
  2158   2154   2157 1
  2159   2157   2158 1
  2160   2159   2160 1
  2161   2159   2161 1
  2162   2159   2172 1
  2163   2161   2162 1
  2164   2161   2163 1
  2165   2161   2171 1
  2166   2163   2164 1
  2167   2163   2165 1
  2168   2163   2170 1
  2169   2165   2166 1
  2170   2165   2167 1
  2171   2165   2168 1
  2172   2168   2169 1
  2173   2173   2174 1
  2174   2173   2179 1
  2175   2173   2190 1
  2176   2174   2175 1
  2177   2174   2176 1
  2178   2174   2177 1
  2179   2177   2178 1
  2180   2179   2180 1
  2181   2180   2181 1
  2182   2180   2182 1
  2183   2180   2187 1
  2184   2182   2183 1
  2185   2182   2184 1
  2186   2182   2185 1
  2187   2185   2186 1
  2188   2187   2188 1
  2189   2187   2189 1
  2190   2187   2190 1
  2191   2190   2191 1
  2192   2190   2192 1
  2193   2193   2194 1
  2194   2193   2199 1
  2195   2193   2210 1
  2196   2194   2195 1
  2197   2194   2196 1
  2198   2194   2197 1
  2199   2197   2198 1
  2200   2199   2200 1
  2201   2199   2201 1
  2202   2199   2212 1
  2203   2201   2202 1
  2204   2201   2203 1
  2205   2201   2211 1
  2206   2203   2204 1
  2207   2203   2205 1
  2208   2203   2210 1
  2209   2205   2206 1
  2210   2205   2207 1
  2211   2205   2208 1
  2212   2208   2209 1
  2213   2213   2214 1
  2214   2213   2219 1
  2215   2213   2230 1
  2216   2214   2215 1
  2217   2214   2216 1
  2218   2214   2217 1
  2219   2217   2218 1
  2220   2219   2220 1
  2221   2220   2221 1
  2222   2220   2222 1
  2223   2220   2227 1
  2224   2222   2223 1
  2225   2222   2224 1
  2226   2222   2225 1
  2227   2225   2226 1
  2228   2227   2228 1
  2229   2227   2229 1
  2230   2227   2230 1
  2231   2230   2231 1
  2232   2230   2232 1
  2233   2233   2234 1
  2234   2233   2235 1
  2235   2233   2246 1
  2236   2235   2236 1
  2237   2235   2237 1
  2238   2235   2248 1
  2239   2237   2238 1
  2240   2237   2239 1
  2241   2237   2247 1
  2242   2239   2240 1
  2243   2239   2241 1
  2244   2239   2246 1
  2245   2241   2242 1
  2246   2241   2243 1
  2247   2241   2244 1
  2248   2244   2245 1
  2249   2249   2250 1
  2250   2249   2251 1
  2251   2249   2262 1
  2252   2251   2252 1
  2253   2252   2253 1
  2254   2252   2254 1
  2255   2252   2259 1
  2256   2254   2255 1
  2257   2254   2256 1
  2258   2254   2257 1
  2259   2257   2258 1
  2260   2259   2260 1
  2261   2259   2261 1
  2262   2259   2262 1
  2263   2262   2263 1
  2264   2262   2264 1
  2265   2265   2266 1
  2266   2265   2267 1
  2267   2265   2278 1
  2268   2267   2268 1
  2269   2267   2269 1
  2270   2267   2280 1
  2271   2269   2270 1
  2272   2269   2271 1
  2273   2269   2279 1
  2274   2271   2272 1
  2275   2271   2273 1
  2276   2271   2278 1
  2277   2273   2274 1
  2278   2273   2275 1
  2279   2273   2276 1
  2280   2276   2277 1
  2281   2281   2282 1
  2282   2281   2283 1
  2283   2281   2294 1
  2284   2283   2284 1
  2285   2284   2285 1
  2286   2284   2286 1
  2287   2284   2291 1
  2288   2286   2287 1
  2289   2286   2288 1
  2290   2286   2289 1
  2291   2289   2290 1
  2292   2291   2292 1
  2293   2291   2293 1
  2294   2291   2294 1
  2295   2294   2295 1
  2296   2294   2296 1
  2297   2297   2298 1
  2298   2297   2299 1
  2299   2297   2310 1
  2300   2299   2300 1
  2301   2299   2301 1
  2302   2299   2312 1
  2303   2301   2302 1
  2304   2301   2303 1
  2305   2301   2311 1
  2306   2303   2304 1
  2307   2303   2305 1
  2308   2303   2310 1
  2309   2305   2306 1
  2310   2305   2307 1
  2311   2305   2308 1
  2312   2308   2309 1
  2313   2313   2314 1
  2314   2313   2315 1
  2315   2313   2326 1
  2316   2315   2316 1
  2317   2316   2317 1
  2318   2316   2318 1
  2319   2316   2323 1
  2320   2318   2319 1
  2321   2318   2320 1
  2322   2318   2321 1
  2323   2321   2322 1
  2324   2323   2324 1
  2325   2323   2325 1
  2326   2323   2326 1
  2327   2326   2327 1
  2328   2326   2328 1
  2329   2329   2330 1
  2330   2329   2331 1
  2331   2329   2342 1
  2332   2331   2332 1
  2333   2331   2333 1
  2334   2331   2344 1
  2335   2333   2334 1
  2336   2333   2335 1
  2337   2333   2343 1
  2338   2335   2336 1
  2339   2335   2337 1
  2340   2335   2342 1
  2341   2337   2338 1
  2342   2337   2339 1
  2343   2337   2340 1
  2344   2340   2341 1
  2345   2345   2346 1
  2346   2345   2347 1
  2347   2345   2358 1
  2348   2347   2348 1
  2349   2348   2349 1
  2350   2348   2350 1
  2351   2348   2355 1
  2352   2350   2351 1
  2353   2350   2352 1
  2354   2350   2353 1
  2355   2353   2354 1
  2356   2355   2356 1
  2357   2355   2357 1
  2358   2355   2358 1
  2359   2358   2359 1
  2360   2358   2360 1
@<TRIPOS>SUBSTRUCTURE
    1      0AD      1 ****               0 ****  **** 
    2      0AU     19 ****               0 ****  **** 
    3      0BD     37 ****               0 ****  **** 
    4      0BU     59 ****               0 ****  **** 
    5      0CD     81 ****               0 ****  **** 
    6      0CU    103 ****               0 ****  **** 
    7      0DD    125 ****               0 ****  **** 
    8      0DU    143 ****               0 ****  **** 
    9      0JD    161 ****               0 ****  **** 
   10      0JU    183 ****               0 ****  **** 
   11      0PD    205 ****               0 ****  **** 
   12      0PU    227 ****               0 ****  **** 
   13      0RD    249 ****               0 ****  **** 
   14      0RU    267 ****               0 ****  **** 
   15      0XD    285 ****               0 ****  **** 
   16      0XU    303 ****               0 ****  **** 
   17      1AD    321 ****               0 ****  **** 
   18      1AU    340 ****               0 ****  **** 
   19      1BD    359 ****               0 ****  **** 
   20      1BU    380 ****               0 ****  **** 
   21      1CD    401 ****               0 ****  **** 
   22      1CU    422 ****               0 ****  **** 
   23      1DD    443 ****               0 ****  **** 
   24      1DU    462 ****               0 ****  **** 
   25      1JD    481 ****               0 ****  **** 
   26      1JU    502 ****               0 ****  **** 
   27      1PD    523 ****               0 ****  **** 
   28      1PU    544 ****               0 ****  **** 
   29      1RD    565 ****               0 ****  **** 
   30      1RU    584 ****               0 ****  **** 
   31      1XD    603 ****               0 ****  **** 
   32      1XU    622 ****               0 ****  **** 
   33      2AD    641 ****               0 ****  **** 
   34      2AU    658 ****               0 ****  **** 
   35      2BD    675 ****               0 ****  **** 
   36      2BU    698 ****               0 ****  **** 
   37      2CD    721 ****               0 ****  **** 
   38      2CU    744 ****               0 ****  **** 
   39      2DD    767 ****               0 ****  **** 
   40      2DU    784 ****               0 ****  **** 
   41      2JD    801 ****               0 ****  **** 
   42      2JU    824 ****               0 ****  **** 
   43      2PD    847 ****               0 ****  **** 
   44      2PU    870 ****               0 ****  **** 
   45      2RD    893 ****               0 ****  **** 
   46      2RU    910 ****               0 ****  **** 
   47      2XD    927 ****               0 ****  **** 
   48      2XU    944 ****               0 ****  **** 
   49      3AD    961 ****               0 ****  **** 
   50      3AU    978 ****               0 ****  **** 
   51      3BD    995 ****               0 ****  **** 
   52      3BU   1016 ****               0 ****  **** 
   53      3CD   1037 ****               0 ****  **** 
   54      3CU   1058 ****               0 ****  **** 
   55      3DD   1079 ****               0 ****  **** 
   56      3DU   1096 ****               0 ****  **** 
   57      3JD   1113 ****               0 ****  **** 
   58      3JU   1134 ****               0 ****  **** 
   59      3PD   1155 ****               0 ****  **** 
   60      3PU   1176 ****               0 ****  **** 
   61      3RD   1197 ****               0 ****  **** 
   62      3RU   1214 ****               0 ****  **** 
   63      3XD   1231 ****               0 ****  **** 
   64      3XU   1248 ****               0 ****  **** 
   65      4BD   1265 ****               0 ****  **** 
   66      4BU   1286 ****               0 ****  **** 
   67      4CD   1307 ****               0 ****  **** 
   68      4CU   1328 ****               0 ****  **** 
   69      4JD   1349 ****               0 ****  **** 
   70      4JU   1370 ****               0 ****  **** 
   71      4PD   1391 ****               0 ****  **** 
   72      4PU   1412 ****               0 ****  **** 
   73      6BD   1433 ****               0 ****  **** 
   74      6BU   1454 ****               0 ****  **** 
   75      6CD   1475 ****               0 ****  **** 
   76      6CU   1496 ****               0 ****  **** 
   77      6JD   1517 ****               0 ****  **** 
   78      6JU   1538 ****               0 ****  **** 
   79      6PD   1559 ****               0 ****  **** 
   80      6PU   1580 ****               0 ****  **** 
   81      QBD   1601 ****               0 ****  **** 
   82      QBU   1620 ****               0 ****  **** 
   83      QCD   1639 ****               0 ****  **** 
   84      QCU   1658 ****               0 ****  **** 
   85      QJD   1677 ****               0 ****  **** 
   86      QJU   1696 ****               0 ****  **** 
   87      QPD   1715 ****               0 ****  **** 
   88      QPU   1734 ****               0 ****  **** 
   89      UBD   1753 ****               0 ****  **** 
   90      UBU   1773 ****               0 ****  **** 
   91      UCD   1793 ****               0 ****  **** 
   92      UCU   1813 ****               0 ****  **** 
   93      UJD   1833 ****               0 ****  **** 
   94      UJU   1853 ****               0 ****  **** 
   95      UPD   1873 ****               0 ****  **** 
   96      UPU   1893 ****               0 ****  **** 
   97      VBD   1913 ****               0 ****  **** 
   98      VBU   1933 ****               0 ****  **** 
   99      VCD   1953 ****               0 ****  **** 
  100      VCU   1973 ****               0 ****  **** 
  101      VJD   1993 ****               0 ****  **** 
  102      VJU   2013 ****               0 ****  **** 
  103      VPD   2033 ****               0 ****  **** 
  104      VPU   2053 ****               0 ****  **** 
  105      WBD   2073 ****               0 ****  **** 
  106      WBU   2093 ****               0 ****  **** 
  107      WCD   2113 ****               0 ****  **** 
  108      WCU   2133 ****               0 ****  **** 
  109      WJD   2153 ****               0 ****  **** 
  110      WJU   2173 ****               0 ****  **** 
  111      WPD   2193 ****               0 ****  **** 
  112      WPU   2213 ****               0 ****  **** 
  113      ZAD   2233 ****               0 ****  **** 
  114      ZAU   2249 ****               0 ****  **** 
  115      ZDD   2265 ****               0 ****  **** 
  116      ZDU   2281 ****               0 ****  **** 
  117      ZRD   2297 ****               0 ****  **** 
  118      ZRU   2313 ****               0 ****  **** 
  119      ZXD   2329 ****               0 ****  **** 
  120      ZXU   2345 ****               0 ****  **** 
