@<TRIPOS>MOLECULE
d_pyranose
 10924 10924 530 0 1
SMALL
USER_CHARGES
@<TRIPOS>ATOM
     1   C1   -1.493    1.006    0.677   Cg     1      0AA   0.448000
     2   H1   -2.504    0.916    1.078   H2     1      0AA   0.000000
     3   C2   -0.615   -0.128    1.258   Cg     1      0AA   0.268000
     4   H2   -0.387    0.078    2.306   H1     1      0AA   0.000000
     5   C3    0.688   -0.408    0.482   Cg     1      0AA   0.335000
     6   H3    1.127   -1.352    0.809   H1     1      0AA   0.000000
     7   C4    0.444   -0.444   -1.041   Cg     1      0AA   0.245000
     8   H4   -0.151   -1.327   -1.276   H1     1      0AA   0.000000
     9   C5   -0.304    0.790   -1.555   Cg     1      0AA   0.379000
    10  H5E   -0.528    0.685   -2.617   H1     1      0AA   0.000000
    11  H5A    0.293    1.693   -1.418   H1     1      0AA   0.000000
    12   O5   -1.571    0.920   -0.802   Os     1      0AA  -0.564000
    13   O4    1.694   -0.559   -1.742   Oh     1      0AA  -0.748000
    14  H4O    2.243    0.203   -1.542   Ho     1      0AA   0.434000
    15   O3    1.609    0.651    0.809   Oh     1      0AA  -0.772000
    16  H3O    1.764    0.659    1.756   Ho     1      0AA   0.461000
    17   O2   -1.403   -1.329    1.217   Oh     1      0AA  -0.735000
    18  H2O   -0.903   -2.053    1.600   Ho     1      0AA   0.443000
    19   C1   -1.695   -0.084    0.938   Cg     2      0AB   0.379000
    20   H1   -1.339    0.014    1.965   H2     2      0AB   0.000000
    21   O5   -1.545    1.209    0.262   Os     2      0AB  -0.529000
    22   C5   -0.138    1.652    0.091   Cg     2      0AB   0.356000
    23  H5E   -0.128    2.589   -0.465   H1     2      0AB   0.000000
    24  H5A    0.302    1.837    1.072   H1     2      0AB   0.000000
    25   C4    0.670    0.577   -0.672   Cg     2      0AB   0.224000
    26   H4    0.265    0.500   -1.683   H1     2      0AB   0.000000
    27   O4    2.068    0.976   -0.786   Oh     2      0AB  -0.730000
    28  H4O    2.457    0.592   -1.579   Ho     2      0AB   0.440000
    29   C3    0.556   -0.805    0.022   Cg     2      0AB   0.297000
    30   H3    1.076   -1.553   -0.578   H1     2      0AB   0.000000
    31   O3    1.197   -0.750    1.326   Oh     2      0AB  -0.668000
    32  H3O    2.059   -0.329    1.211   Ho     2      0AB   0.407000
    33   C2   -0.917   -1.225    0.206   Cg     2      0AB   0.300000
    34   H2   -0.973   -2.140    0.797   H1     2      0AB   0.000000
    35   O2   -1.477   -1.498   -1.115   Oh     2      0AB  -0.700000
    36  H2O   -2.435   -1.561   -1.011   Ho     2      0AB   0.418000
    37   C2   -0.911    0.451    0.995   Cg     3      0BA   0.130000
    38   C1   -2.373    0.172    1.462   Cg     3      0BA   0.428000
    39  H12   -2.368   -0.442    2.364   H1     3      0BA   0.000000
    40  H11   -2.870    1.112    1.703   H1     3      0BA   0.000000
    41   O1   -3.141   -0.515    0.452   Oh     3      0BA  -0.678000
    42  H1O   -2.830   -1.424    0.422   Ho     3      0BA   0.399000
    43   C3   -0.247   -0.801    0.347   Cg     3      0BA   0.372000
    44   H3   -0.824   -1.079   -0.538   H1     3      0BA   0.000000
    45   C4    1.193   -0.482   -0.122   Cg     3      0BA   0.335000
    46   H4    1.812   -0.211    0.736   H1     3      0BA   0.000000
    47   C5    1.156    0.683   -1.143   Cg     3      0BA   0.224000
    48   H5    0.617    0.365   -2.037   H1     3      0BA   0.000000
    49   C6    0.445    1.926   -0.565   Cg     3      0BA   0.341000
    50  H6E    0.296    2.669   -1.349   H1     3      0BA   0.000000
    51  H6A    1.060    2.381    0.213   H1     3      0BA   0.000000
    52   O6   -0.879    1.565    0.017   Os     3      0BA  -0.507000
    53   O5    2.505    1.063   -1.532   Oh     3      0BA  -0.690000
    54  H5O    2.844    0.426   -2.169   Ho     3      0BA   0.429000
    55   O4    1.774   -1.661   -0.758   Oh     3      0BA  -0.724000
    56  H4O    2.729   -1.641   -0.629   Ho     3      0BA   0.421000
    57   O3   -0.283   -1.941    1.252   Oh     3      0BA  -0.716000
    58  H3O    0.296   -2.616    0.879   Ho     3      0BA   0.430000
    59   C2   -1.436    0.059    0.409   Cg     4      0BB   0.227000
    60   O6   -1.271    1.327   -0.340   Os     4      0BB  -0.477000
    61   C6    0.120    1.762   -0.627   Cg     4      0BB   0.311000
    62  H6E    0.092    2.673   -1.225   H1     4      0BB   0.000000
    63  H6A    0.625    1.990    0.313   H1     4      0BB   0.000000
    64   C5    0.868    0.648   -1.388   Cg     4      0BB   0.340000
    65   H5    0.450    0.562   -2.392   H1     4      0BB   0.000000
    66   O5    2.262    1.011   -1.493   Oh     4      0BB  -0.720000
    67  H5O    2.720    0.233   -1.836   Ho     4      0BB   0.429000
    68   C4    0.784   -0.720   -0.675   Cg     4      0BB   0.108000
    69   H4    1.350   -0.675    0.258   H1     4      0BB   0.000000
    70   O4    1.387   -1.740   -1.528   Oh     4      0BB  -0.675000
    71  H4O    1.281   -2.603   -1.100   Ho     4      0BB   0.435000
    72   C3   -0.689   -1.082   -0.357   Cg     4      0BB   0.464000
    73   H3   -1.209   -1.269   -1.299   H1     4      0BB   0.000000
    74   O3   -0.708   -2.309    0.421   Oh     4      0BB  -0.730000
    75  H3O   -1.637   -2.509    0.591   Ho     4      0BB   0.432000
    76   C1   -0.979    0.212    1.896   Cg     4      0BB   0.281000
    77  H12   -1.248   -0.678    2.468   H1     4      0BB   0.000000
    78  H11    0.104    0.323    1.946   H1     4      0BB   0.000000
    79   O1   -1.583    1.363    2.525   Oh     4      0BB  -0.626000
    80  H1O   -1.284    1.423    3.435   Ho     4      0BB   0.395000
    81   C2   -0.905    0.270    1.080   Cg     5      0CA   0.345000
    82   C1   -2.417   -0.009    1.382   Cg     5      0CA   0.386000
    83  H12   -2.500   -0.840    2.084   H1     5      0CA   0.000000
    84  H11   -2.873    0.866    1.849   H1     5      0CA   0.000000
    85   O1   -3.174   -0.337    0.195   Oh     5      0CA  -0.696000
    86  H1O   -2.605   -0.900   -0.350   Ho     5      0CA   0.402000
    87   C3   -0.123   -0.996    0.563   Cg     5      0CA   0.247000
    88   H3    0.040   -1.673    1.404   H1     5      0CA   0.000000
    89   C4    1.246   -0.655   -0.081   Cg     5      0CA   0.367000
    90   H4    1.613   -1.534   -0.613   H1     5      0CA   0.000000
    91   C5    1.147    0.516   -1.083   Cg     5      0CA   0.195000
    92   H5    0.469    0.228   -1.889   H1     5      0CA   0.000000
    93   C6    0.573    1.754   -0.374   Cg     5      0CA   0.437000
    94  H6E    0.476    2.576   -1.083   H1     5      0CA   0.000000
    95  H6A    1.231    2.082    0.432   H1     5      0CA   0.000000
    96   O6   -0.767    1.437    0.176   Os     5      0CA  -0.620000
    97   O5    2.450    0.798   -1.683   Oh     5      0CA  -0.709000
    98  H5O    2.346    1.214   -2.546   Ho     5      0CA   0.415000
    99   O4    2.218   -0.346    0.949   Oh     5      0CA  -0.720000
   100  H4O    3.027   -0.063    0.505   Ho     5      0CA   0.394000
   101   O3   -0.902   -1.742   -0.430   Oh     5      0CA  -0.655000
   102  H3O   -0.572   -2.647   -0.490   Ho     5      0CA   0.406000
   103   C2   -1.418   -0.106    0.378   Cg     6      0CB   0.244000
   104   O6   -1.261    1.159   -0.374   Os     6      0CB  -0.460000
   105   C6    0.122    1.605   -0.665   Cg     6      0CB   0.365000
   106  H6E    0.083    2.524   -1.248   H1     6      0CB   0.000000
   107  H6A    0.640    1.820    0.271   H1     6      0CB   0.000000
   108   C5    0.858    0.508   -1.455   Cg     6      0CB   0.195000
   109   H5    0.359    0.400   -2.419   H1     6      0CB   0.000000
   110   O5    2.234    0.911   -1.716   Oh     6      0CB  -0.684000
   111  H5O    2.765    0.749   -0.927   Ho     6      0CB   0.415000
   112   C4    0.815   -0.859   -0.729   Cg     6      0CB   0.344000
   113   H4    1.233   -1.619   -1.391   H1     6      0CB   0.000000
   114   O4    1.655   -0.817    0.464   Oh     6      0CB  -0.698000
   115  H4O    2.070   -1.679    0.585   Ho     6      0CB   0.417000
   116   C3   -0.629   -1.261   -0.332   Cg     6      0CB   0.317000
   117   H3   -0.601   -2.134    0.322   H1     6      0CB   0.000000
   118   O3   -1.308   -1.653   -1.556   Oh     6      0CB  -0.697000
   119  H3O   -2.249   -1.489   -1.398   Ho     6      0CB   0.407000
   120   C1   -1.010    0.078    1.876   Cg     6      0CB   0.297000
   121  H12   -1.187   -0.846    2.428   H1     6      0CB   0.000000
   122  H11    0.047    0.318    1.962   H1     6      0CB   0.000000
   123   O1   -1.756    1.146    2.507   Oh     6      0CB  -0.669000
   124  H1O   -1.465    1.245    3.417   Ho     6      0CB   0.401000
   125   C1   -0.821    1.628   -0.655   Cg     7      0DA   0.398000
   126   H1   -0.649    2.430   -1.373   H2     7      0DA   0.000000
   127   C2   -0.330    0.279   -1.264   Cg     7      0DA   0.246000
   128   H2   -0.994   -0.012   -2.080   H1     7      0DA   0.000000
   129   C3   -0.327   -0.833   -0.186   Cg     7      0DA   0.184000
   130   H3   -1.357   -0.984    0.141   H1     7      0DA   0.000000
   131   C4    0.522   -0.418    1.036   Cg     7      0DA   0.351000
   132   H4    1.567   -0.301    0.748   H1     7      0DA   0.000000
   133   C5   -0.009    0.903    1.631   Cg     7      0DA   0.275000
   134  H5E    0.655    1.249    2.422   H1     7      0DA   0.000000
   135  H5A   -0.996    0.741    2.071   H1     7      0DA   0.000000
   136   O5   -0.123    1.967    0.595   Os     7      0DA  -0.487000
   137   O4    0.425   -1.449    2.047   Oh     7      0DA  -0.711000
   138  H4O    0.594   -2.285    1.595   Ho     7      0DA   0.422000
   139   O3    0.137   -2.103   -0.734   Oh     7      0DA  -0.655000
   140  H3O   -0.287   -2.274   -1.581   Ho     7      0DA   0.417000
   141   O2    1.008    0.452   -1.815   Oh     7      0DA  -0.678000
   142  H2O    0.986    1.011   -2.597   Ho     7      0DA   0.432000
   143   C1    0.963    0.945    1.481   Cg     8      0DB   0.448000
   144   H1    1.147    1.892    0.972   H2     8      0DB   0.000000
   145   O5   -0.482    0.850    1.787   Os     8      0DB  -0.519000
   146   C5   -1.378    0.912    0.610   Cg     8      0DB   0.275000
   147  H5E   -2.410    0.788    0.939   H1     8      0DB   0.000000
   148  H5A   -1.284    1.897    0.150   H1     8      0DB   0.000000
   149   C4   -1.006   -0.192   -0.396   Cg     8      0DB   0.335000
   150   H4   -1.311   -1.162   -0.002   H1     8      0DB   0.000000
   151   O4   -1.732    0.078   -1.606   Oh     8      0DB  -0.709000
   152  H4O   -1.535   -0.602   -2.254   Ho     8      0DB   0.436000
   153   C3    0.504   -0.192   -0.713   Cg     8      0DB   0.201000
   154   H3    0.752    0.714   -1.270   H1     8      0DB   0.000000
   155   O3    0.830   -1.325   -1.540   Oh     8      0DB  -0.701000
   156  H3O    0.315   -1.289   -2.350   Ho     8      0DB   0.432000
   157   C2    1.373   -0.223    0.561   Cg     8      0DB   0.226000
   158   H2    2.429   -0.144    0.298   H1     8      0DB   0.000000
   159   O2    1.151   -1.468    1.263   Oh     8      0DB  -0.645000
   160  H2O    1.674   -1.479    2.068   Ho     8      0DB   0.415000
   161   C1   -0.956    0.959    1.443   Cg     9      0EA   0.480000
   162   H1   -1.890    1.022    2.003   H2     9      0EA   0.000000
   163   C2   -0.140   -0.249    1.955   Cg     9      0EA   0.179000
   164   H2    0.278   -0.027    2.939   H1     9      0EA   0.000000
   165   C3    0.976   -0.727    1.006   Cg     9      0EA   0.328000
   166   H3    1.351   -1.700    1.327   H1     9      0EA   0.000000
   167   C4    0.489   -0.811   -0.457   Cg     9      0EA   0.261000
   168   H4   -0.231   -1.627   -0.530   H1     9      0EA   0.000000
   169   C5   -0.190    0.484   -0.943   Cg     9      0EA   0.374000
   170   H5    0.537    1.298   -0.931   H1     9      0EA   0.000000
   171   C6   -0.803    0.379   -2.347   Cg     9      0EA   0.259000
   172  H62   -0.048    0.076   -3.072   H1     9      0EA   0.000000
   173  H61   -1.610   -0.355   -2.361   H1     9      0EA   0.000000
   174   O6   -1.318    1.662   -2.726   Oh     9      0EA  -0.663000
   175  H6O   -0.606    2.306   -2.726   Ho     9      0EA   0.406000
   176   O5   -1.286    0.807    0.006   Os     9      0EA  -0.587000
   177   O4    1.601   -1.131   -1.311   Oh     9      0EA  -0.721000
   178  H4O    2.261   -0.436   -1.250   Ho     9      0EA   0.415000
   179   O3    2.054    0.225    1.114   Oh     9      0EA  -0.714000
   180  H3O    2.353    0.267    2.025   Ho     9      0EA   0.420000
   181   O2   -1.062   -1.339    2.114   Oh     9      0EA  -0.690000
   182  H2O   -1.759   -1.083    2.722   Ho     9      0EA   0.447000
   183   C1   -1.572   -0.713    1.079   Cg    10      0EB   0.488000
   184   H1   -1.196   -0.610    2.097   H2    10      0EB   0.000000
   185   O5   -1.437    0.575    0.387   Os    10      0EB  -0.532000
   186   C5   -0.024    1.031    0.172   Cg    10      0EB   0.257000
   187   H5    0.434    1.201    1.149   H1    10      0EB   0.000000
   188   C6   -0.036    2.365   -0.600   Cg    10      0EB   0.278000
   189  H62   -0.487    2.225   -1.583   H1    10      0EB   0.000000
   190  H61    0.979    2.738   -0.738   H1    10      0EB   0.000000
   191   O6   -0.797    3.347    0.127   Oh    10      0EB  -0.677000
   192  H6O   -1.648    2.958    0.351   Ho    10      0EB   0.408000
   193   C4    0.773   -0.066   -0.577   Cg    10      0EB   0.320000
   194   H4    0.365   -0.165   -1.584   H1    10      0EB   0.000000
   195   O4    2.173    0.315   -0.705   Oh    10      0EB  -0.724000
   196  H4O    2.580   -0.163   -1.436   Ho    10      0EB   0.420000
   197   C3    0.657   -1.437    0.146   Cg    10      0EB   0.315000
   198   H3    1.179   -2.196   -0.438   H1    10      0EB   0.000000
   199   O3    1.275   -1.376    1.461   Oh    10      0EB  -0.681000
   200  H3O    2.158   -0.999    1.364   Ho    10      0EB   0.403000
   201   C2   -0.816   -1.850    0.326   Cg    10      0EB   0.184000
   202   H2   -0.873   -2.772    0.907   H1    10      0EB   0.000000
   203   O2   -1.373   -2.111   -1.002   Oh    10      0EB  -0.697000
   204  H2O   -2.315   -2.298   -0.904   Ho    10      0EB   0.432000
   205   C1   -0.829    1.565   -0.932   Cg    11      0FA   0.399000
   206   H1   -0.603    2.423   -1.565   H2    11      0FA   0.000000
   207   C2   -0.319    0.262   -1.634   Cg    11      0FA   0.456000
   208   H2    0.747    0.387   -1.829   H1    11      0FA   0.000000
   209   C3   -0.521   -0.955   -0.696   Cg    11      0FA   0.228000
   210   H3   -1.584   -1.066   -0.475   H1    11      0FA   0.000000
   211   C4    0.237   -0.726    0.636   Cg    11      0FA   0.263000
   212   H4    0.023   -1.555    1.312   H1    11      0FA   0.000000
   213   C5   -0.199    0.600    1.318   Cg    11      0FA   0.187000
   214   H5   -1.235    0.472    1.636   H1    11      0FA   0.000000
   215   C6    0.608    0.988    2.560   Cg    11      0FA   0.065000
   216  H63    0.595    0.192    3.304   Hc    11      0FA   0.000000
   217  H62    0.196    1.880    3.033   Hc    11      0FA   0.000000
   218  H61    1.651    1.200    2.320   Hc    11      0FA   0.000000
   219   O5   -0.157    1.750    0.364   Os    11      0FA  -0.494000
   220   O4    1.666   -0.715    0.376   Oh    11      0FA  -0.739000
   221  H4O    1.874   -1.527   -0.104   Ho    11      0FA   0.447000
   222   O3   -0.064   -2.206   -1.303   Oh    11      0FA  -0.693000
   223  H3O   -0.738   -2.514   -1.921   Ho    11      0FA   0.426000
   224   O2   -0.963    0.043   -2.929   Oh    11      0FA  -0.804000
   225  H2O   -0.385   -0.500   -3.471   Ho    11      0FA   0.453000
   226   C1   -1.528    0.602    1.034   Cg    12      0FB   0.418000
   227   H1   -1.227    1.569    1.441   H2    12      0FB   0.000000
   228   O5   -1.432    0.664   -0.440   Os    12      0FB  -0.442000
   229   C5   -0.072    0.829   -1.004   Cg    12      0FB   0.106000
   230   H5    0.361    1.744   -0.593   H1    12      0FB   0.000000
   231   C6   -0.202    1.023   -2.517   Cg    12      0FB   0.092000
   232  H63    0.776    1.150   -2.984   Hc    12      0FB   0.000000
   233  H62   -0.689    0.174   -2.999   Hc    12      0FB   0.000000
   234  H61   -0.790    1.911   -2.751   Hc    12      0FB   0.000000
   235   C4    0.800   -0.362   -0.555   Cg    12      0FB   0.229000
   236   H4    1.820   -0.235   -0.922   H1    12      0FB   0.000000
   237   O4    0.249   -1.576   -1.114   Oh    12      0FB  -0.659000
   238  H4O    0.239   -1.511   -2.072   Ho    12      0FB   0.423000
   239   C3    0.803   -0.452    0.984   Cg    12      0FB   0.255000
   240   H3    1.310    0.435    1.370   H1    12      0FB   0.000000
   241   O3    1.559   -1.607    1.392   Oh    12      0FB  -0.676000
   242  H3O    1.582   -1.651    2.351   Ho    12      0FB   0.427000
   243   C2   -0.617   -0.518    1.584   Cg    12      0FB   0.346000
   244   H2   -1.061   -1.495    1.383   H1    12      0FB   0.000000
   245   O2   -0.504   -0.329    3.006   Oh    12      0FB  -0.765000
   246  H2O   -1.377   -0.367    3.403   Ho    12      0FB   0.440000
   247   C1   -1.008   -0.457    1.708   Cg    13      0GA   0.509000
   248   H1   -1.917   -0.818    2.189   H2    13      0GA   0.000000
   249   C2   -0.292   -1.635    0.986   Cg    13      0GA   0.246000
   250   H2   -1.030   -2.131    0.353   H1    13      0GA   0.000000
   251   C3    0.858   -1.132    0.089   Cg    13      0GA   0.286000
   252   H3    1.667   -0.756    0.719   H1    13      0GA   0.000000
   253   C4    0.395   -0.019   -0.881   Cg    13      0GA   0.254000
   254   H4   -0.311   -0.436   -1.602   H1    13      0GA   0.000000
   255   C5   -0.276    1.143   -0.120   Cg    13      0GA   0.283000
   256   H5    0.477    1.620    0.511   H1    13      0GA   0.000000
   257   C6   -0.865    2.212   -1.070   Cg    13      0GA   0.276000
   258  H62   -0.152    2.464   -1.855   H1    13      0GA   0.000000
   259  H61   -1.769    1.830   -1.547   H1    13      0GA   0.000000
   260   O6   -1.181    3.422   -0.349   Oh    13      0GA  -0.682000
   261  H6O   -0.379    3.924   -0.190   Ho    13      0GA   0.418000
   262   O5   -1.360    0.604    0.765   Os    13      0GA  -0.574000
   263   O4    1.549    0.490   -1.599   Oh    13      0GA  -0.710000
   264  H4O    2.020   -0.273   -1.963   Ho    13      0GA   0.436000
   265   O3    1.358   -2.249   -0.692   Oh    13      0GA  -0.699000
   266  H3O    1.419   -3.011   -0.099   Ho    13      0GA   0.427000
   267   O2    0.212   -2.625    1.942   Oh    13      0GA  -0.713000
   268  H2O    0.584   -2.166    2.707   Ho    13      0GA   0.437000
   269   C1   -1.497   -0.633    1.075   Cg    14      0GB   0.384000
   270   H1   -1.102   -0.520    2.085   H2    14      0GB   0.000000
   271   O5   -1.437    0.661    0.387   Os    14      0GB  -0.471000
   272   C5   -0.061    1.197    0.156   Cg    14      0GB   0.225000
   273   H5    0.423    1.330    1.126   H1    14      0GB   0.000000
   274   C6   -0.159    2.571   -0.536   Cg    14      0GB   0.282000
   275  H62   -0.628    2.466   -1.516   H1    14      0GB   0.000000
   276  H61    0.832    3.002   -0.674   H1    14      0GB   0.000000
   277   O6   -0.949    3.467    0.267   Oh    14      0GB  -0.688000
   278  H6O   -1.789    3.039    0.459   Ho    14      0GB   0.424000
   279   C4    0.743    0.174   -0.673   Cg    14      0GB   0.276000
   280   H4    0.314    0.104   -1.675   H1    14      0GB   0.000000
   281   O4    2.112    0.631   -0.783   Oh    14      0GB  -0.714000
   282  H4O    2.623   -0.080   -1.195   Ho    14      0GB   0.440000
   283   C3    0.727   -1.224   -0.009   Cg    14      0GB   0.284000
   284   H3    1.286   -1.181    0.928   H1    14      0GB   0.000000
   285   O3    1.384   -2.172   -0.895   Oh    14      0GB  -0.709000
   286  H3O    1.292   -3.049   -0.499   Ho    14      0GB   0.432000
   287   C2   -0.709   -1.713    0.284   Cg    14      0GB   0.310000
   288   H2   -1.222   -1.916   -0.658   H1    14      0GB   0.000000
   289   O2   -0.641   -2.948    1.056   Oh    14      0GB  -0.718000
   290  H2O   -1.542   -3.204    1.291   Ho    14      0GB   0.437000
   291   C1   -0.729    1.689   -1.156   Cg    15      0HA   0.394000
   292   H1   -0.389    2.534   -1.754   H2    15      0HA   0.000000
   293   C2   -0.369    0.365   -1.887   Cg    15      0HA   0.248000
   294   H2   -0.995    0.256   -2.773   H1    15      0HA   0.000000
   295   C3   -0.585   -0.847   -0.954   Cg    15      0HA   0.236000
   296   H3   -1.654   -0.943   -0.755   H1    15      0HA   0.000000
   297   C4    0.162   -0.696    0.390   Cg    15      0HA   0.187000
   298   H4    1.238   -0.692    0.214   H1    15      0HA   0.000000
   299   C5   -0.259    0.618    1.094   Cg    15      0HA   0.279000
   300   H5   -1.311    0.546    1.378   H1    15      0HA   0.000000
   301   C6    0.558    0.939    2.347   Cg    15      0HA   0.023000
   302  H63    0.451    0.161    3.103   Hc    15      0HA   0.000000
   303  H62    0.235    1.875    2.802   Hc    15      0HA   0.000000
   304  H61    1.621    1.033    2.121   Hc    15      0HA   0.000000
   305   O5   -0.107    1.777    0.176   Os    15      0HA  -0.461000
   306   O4   -0.171   -1.830    1.240   Oh    15      0HA  -0.644000
   307  H4O    0.442   -1.882    1.981   Ho    15      0HA   0.405000
   308   O3   -0.150   -2.062   -1.621   Oh    15      0HA  -0.649000
   309  H3O   -0.249   -2.780   -0.985   Ho    15      0HA   0.425000
   310   O2    1.020    0.411   -2.321   Oh    15      0HA  -0.670000
   311  H2O    1.242   -0.473   -2.639   Ho    15      0HA   0.421000
   312   C1   -2.026   -0.562   -0.525   Cg    16      0HB   0.381000
   313   H1   -1.814   -1.309   -1.291   H2    16      0HB   0.000000
   314   O5   -1.325   -0.950    0.718   Os    16      0HB  -0.427000
   315   C5    0.149   -1.082    0.612   Cg    16      0HB   0.172000
   316   H5    0.364   -1.891   -0.089   H1    16      0HB   0.000000
   317  C6M    0.663   -1.487    1.995   Cg    16      0HB   0.039000
   318  H1M    0.197   -2.412    2.336   Hc    16      0HB   0.000000
   319  H2M    0.457   -0.720    2.743   Hc    16      0HB   0.000000
   320  H3M    1.741   -1.655    1.986   Hc    16      0HB   0.000000
   321   C4    0.753    0.236    0.071   Cg    16      0HB   0.388000
   322   H4    0.726    1.001    0.850   H1    16      0HB   0.000000
   323   O4    2.120   -0.028   -0.288   Oh    16      0HB  -0.728000
   324  H4O    2.599   -0.338    0.484   Ho    16      0HB   0.432000
   325   C3    0.016    0.740   -1.187   Cg    16      0HB   0.182000
   326   H3    0.216    0.057   -2.015   H1    16      0HB   0.000000
   327   O3    0.511    2.041   -1.555   Oh    16      0HB  -0.665000
   328  H3O    1.458    1.991   -1.705   Ho    16      0HB   0.418000
   329   C2   -1.512    0.815   -0.991   Cg    16      0HB   0.243000
   330   H2   -1.997    1.104   -1.925   H1    16      0HB   0.000000
   331   O2   -1.816    1.797    0.026   Oh    16      0HB  -0.673000
   332  H2O   -1.482    2.654   -0.247   Ho    16      0HB   0.432000
   333   C2   -0.843    0.360    1.136   Cg    17      0JA   0.114000
   334   C1   -2.286    0.031    1.634   Cg    17      0JA   0.410000
   335  H12   -2.253   -0.804    2.335   H1    17      0JA   0.000000
   336  H11   -2.716    0.889    2.152   H1    17      0JA   0.000000
   337   O1   -3.147   -0.323    0.538   Oh    17      0JA  -0.656000
   338  H1O   -2.573   -0.755   -0.113   Ho    17      0JA   0.405000
   339   C3   -0.104   -0.866    0.513   Cg    17      0JA   0.271000
   340   H3    0.055   -1.624    1.282   H1    17      0JA   0.000000
   341   C4    1.266   -0.449   -0.078   Cg    17      0JA   0.281000
   342   H4    1.912   -0.107    0.732   H1    17      0JA   0.000000
   343   C5    1.112    0.693   -1.110   Cg    17      0JA   0.273000
   344   H5    0.534    0.344   -1.968   H1    17      0JA   0.000000
   345   C6    0.402    1.903   -0.475   Cg    17      0JA   0.368000
   346  H6E    0.180    2.649   -1.238   H1    17      0JA   0.000000
   347  H6A    1.052    2.368    0.268   H1    17      0JA   0.000000
   348   O6   -0.868    1.501    0.191   Os    17      0JA  -0.504000
   349   O5    2.424    1.113   -1.573   Oh    17      0JA  -0.699000
   350  H5O    2.876    0.341   -1.935   Ho    17      0JA   0.419000
   351   O4    1.905   -1.610   -0.693   Oh    17      0JA  -0.672000
   352  H4O    2.335   -2.138   -0.010   Ho    17      0JA   0.413000
   353   O3   -0.915   -1.460   -0.543   Oh    17      0JA  -0.654000
   354  H3O   -0.348   -2.057   -1.047   Ho    17      0JA   0.425000
   355   C2   -1.436    0.047    0.661   Cg    18      0JB   0.413000
   356   O6   -1.232    1.294   -0.118   Os    18      0JB  -0.551000
   357   C6    0.160    1.620   -0.518   Cg    18      0JB   0.292000
   358  H6E    0.149    2.506   -1.152   H1    18      0JB   0.000000
   359  H6A    0.735    1.857    0.379   H1    18      0JB   0.000000
   360   C5    0.814    0.438   -1.271   Cg    18      0JB   0.374000
   361   H5    0.363    0.354   -2.261   H1    18      0JB   0.000000
   362   O5    2.237    0.696   -1.427   Oh    18      0JB  -0.729000
   363  H5O    2.645    0.908   -0.582   Ho    18      0JB   0.426000
   364   C4    0.641   -0.900   -0.508   Cg    18      0JB   0.155000
   365   H4    1.225   -0.850    0.411   H1    18      0JB   0.000000
   366   O4    1.166   -2.016   -1.287   Oh    18      0JB  -0.684000
   367  H4O    2.028   -1.771   -1.653   Ho    18      0JB   0.438000
   368   C3   -0.840   -1.167   -0.133   Cg    18      0JB   0.363000
   369   H3   -0.906   -2.072    0.473   H1    18      0JB   0.000000
   370   O3   -1.571   -1.393   -1.377   Oh    18      0JB  -0.725000
   371  H3O   -1.071   -2.054   -1.875   Ho    18      0JB   0.432000
   372   C1   -0.848    0.145    2.109   Cg    18      0JB   0.280000
   373  H12   -1.222   -0.681    2.716   H1    18      0JB   0.000000
   374  H11    0.237    0.063    2.084   H1    18      0JB   0.000000
   375   O1   -1.178    1.388    2.764   Oh    18      0JB  -0.722000
   376  H1O   -2.100    1.590    2.564   Ho    18      0JB   0.432000
   377   C1   -1.044    0.894    1.384   Cg    19      0KA   0.473000
   378   H1   -1.978    0.920    1.946   H2    19      0KA   0.000000
   379   C2   -0.184   -0.283    1.892   Cg    19      0KA   0.281000
   380   H2   -0.834   -1.160    1.892   H1    19      0KA   0.000000
   381   C3    1.035   -0.635    1.011   Cg    19      0KA   0.354000
   382   H3    1.486   -1.566    1.358   H1    19      0KA   0.000000
   383   C4    0.634   -0.759   -0.471   Cg    19      0KA   0.196000
   384   H4    1.529   -0.846   -1.089   H1    19      0KA   0.000000
   385   C5   -0.221    0.432   -0.971   Cg    19      0KA   0.301000
   386   H5    0.415    1.320   -0.950   H1    19      0KA   0.000000
   387   C6   -0.765    0.284   -2.398   Cg    19      0KA   0.287000
   388  H62    0.046    0.051   -3.089   H1    19      0KA   0.000000
   389  H61   -1.505   -0.516   -2.451   H1    19      0KA   0.000000
   390   O6   -1.373    1.520   -2.795   Oh    19      0KA  -0.691000
   391  H6O   -0.720    2.223   -2.762   Ho    19      0KA   0.422000
   392   O5   -1.363    0.661   -0.043   Os    19      0KA  -0.540000
   393   O4   -0.121   -1.978   -0.611   Oh    19      0KA  -0.712000
   394  H4O   -0.368   -2.097   -1.531   Ho    19      0KA   0.420000
   395   O3    2.028    0.404    1.099   Oh    19      0KA  -0.744000
   396  H3O    2.311    0.499    2.011   Ho    19      0KA   0.436000
   397   O2    0.215   -0.073    3.258   Oh    19      0KA  -0.716000
   398  H2O    0.776    0.704    3.311   Ho    19      0KA   0.427000
   399   C1   -1.432   -0.555    1.082   Cg    20      0KB   0.449000
   400   H1   -1.038   -0.405    2.089   H2    20      0KB   0.000000
   401   O5   -1.341    0.697    0.328   Os    20      0KB  -0.514000
   402   C5    0.055    1.155    0.026   Cg    20      0KB   0.303000
   403   H5    0.556    1.351    0.976   H1    20      0KB   0.000000
   404   C6    0.001    2.483   -0.756   Cg    20      0KB   0.259000
   405  H62   -0.566    2.361   -1.679   H1    20      0KB   0.000000
   406  H61    1.009    2.807   -1.014   H1    20      0KB   0.000000
   407   O6   -0.624    3.506    0.045   Oh    20      0KB  -0.670000
   408  H6O   -1.504    3.203    0.289   Ho    20      0KB   0.416000
   409   C4    0.853    0.047   -0.713   Cg    20      0KB   0.217000
   410   H4    1.896    0.359   -0.795   H1    20      0KB   0.000000
   411   O4    0.345   -0.148   -2.063   Oh    20      0KB  -0.700000
   412  H4O    0.987   -0.629   -2.597   Ho    20      0KB   0.425000
   413   C3    0.777   -1.296    0.047   Cg    20      0KB   0.253000
   414   H3    1.253   -2.076   -0.548   H1    20      0KB   0.000000
   415   O3    1.526   -1.155    1.282   Oh    20      0KB  -0.710000
   416  H3O    1.410   -1.975    1.784   Ho    20      0KB   0.442000
   417   C2   -0.684   -1.707    0.349   Cg    20      0KB   0.308000
   418   H2   -1.189   -1.911   -0.596   H1    20      0KB   0.000000
   419   O2   -0.686   -2.941    1.134   Oh    20      0KB  -0.710000
   420  H2O   -1.603   -3.170    1.329   Ho    20      0KB   0.426000
   421   C1   -1.085    0.953    1.340   Cg    21      0LA   0.465000
   422   H1   -2.036    0.966    1.872   H2    21      0LA   0.000000
   423   C2   -0.221   -0.212    1.877   Cg    21      0LA   0.339000
   424   H2   -0.838   -1.111    1.890   H1    21      0LA   0.000000
   425   C3    1.024   -0.471    1.006   Cg    21      0LA   0.253000
   426   H3    1.702    0.380    1.087   H1    21      0LA   0.000000
   427   C4    0.652   -0.664   -0.480   Cg    21      0LA   0.204000
   428   H4    1.559   -0.765   -1.077   H1    21      0LA   0.000000
   429   C5   -0.174    0.537   -0.988   Cg    21      0LA   0.216000
   430   H5    0.459    1.424   -0.919   H1    21      0LA   0.000000
   431   C6   -0.659    0.421   -2.440   Cg    21      0LA   0.308000
   432  H62    0.181    0.207   -3.102   H1    21      0LA   0.000000
   433  H61   -1.393   -0.379   -2.543   H1    21      0LA   0.000000
   434   O6   -1.255    1.665   -2.831   Oh    21      0LA  -0.684000
   435  H6O   -0.606    2.369   -2.754   Ho    21      0LA   0.418000
   436   O5   -1.354    0.734   -0.101   Os    21      0LA  -0.527000
   437   O4   -0.142   -1.861   -0.633   Oh    21      0LA  -0.673000
   438  H4O   -0.374   -1.975   -1.558   Ho    21      0LA   0.436000
   439   O3    1.719   -1.642    1.475   Oh    21      0LA  -0.701000
   440  H3O    1.961   -1.522    2.396   Ho    21      0LA   0.433000
   441   O2    0.175    0.071    3.232   Oh    21      0LA  -0.724000
   442  H2O    0.703    0.872    3.250   Ho    21      0LA   0.431000
   443   C1   -1.411   -0.586    1.142   Cg    22      0LB   0.374000
   444   H1   -1.018   -0.477    2.154   H2    22      0LB   0.000000
   445   O5   -1.334    0.715    0.464   Os    22      0LB  -0.402000
   446   C5    0.042    1.224    0.177   Cg    22      0LB   0.140000
   447   H5    0.558    1.360    1.130   H1    22      0LB   0.000000
   448   C6   -0.044    2.596   -0.516   Cg    22      0LB   0.319000
   449  H62   -0.636    2.532   -1.430   H1    22      0LB   0.000000
   450  H61    0.952    2.954   -0.773   H1    22      0LB   0.000000
   451   O6   -0.660    3.535    0.380   Oh    22      0LB  -0.693000
   452  H6O   -1.529    3.195    0.611   Ho    22      0LB   0.419000
   453   C4    0.835    0.179   -0.640   Cg    22      0LB   0.203000
   454   H4    1.867    0.515   -0.750   H1    22      0LB   0.000000
   455   O4    0.252    0.050   -1.961   Oh    22      0LB  -0.664000
   456  H4O    0.699   -0.687   -2.399   Ho    22      0LB   0.437000
   457   C3    0.817   -1.193    0.072   Cg    22      0LB   0.259000
   458   H3    1.353   -1.090    1.018   H1    22      0LB   0.000000
   459   O3    1.536   -2.161   -0.742   Oh    22      0LB  -0.694000
   460  H3O    1.468   -3.018   -0.300   Ho    22      0LB   0.433000
   461   C2   -0.621   -1.681    0.367   Cg    22      0LB   0.357000
   462   H2   -1.132   -1.908   -0.571   H1    22      0LB   0.000000
   463   O2   -0.546   -2.899    1.167   Oh    22      0LB  -0.726000
   464  H2O   -1.447   -3.153    1.400   Ho    22      0LB   0.432000
   465   C1   -1.108   -0.400    1.788   Cg    23      0MA   0.433000
   466   H1   -2.073   -0.717    2.183   H2    23      0MA   0.000000
   467   C2   -0.403   -1.606    1.106   Cg    23      0MA   0.245000
   468   H2   -0.098   -2.325    1.868   H1    23      0MA   0.000000
   469   C3    0.844   -1.135    0.325   Cg    23      0MA   0.252000
   470   H3    1.571   -0.740    1.037   H1    23      0MA   0.000000
   471   C4    0.492   -0.022   -0.693   Cg    23      0MA   0.326000
   472   H4   -0.179   -0.417   -1.457   H1    23      0MA   0.000000
   473   C5   -0.170    1.179    0.021   Cg    23      0MA   0.276000
   474   H5    0.570    1.631    0.685   H1    23      0MA   0.000000
   475   C6   -0.657    2.253   -0.976   Cg    23      0MA   0.266000
   476  H62    0.117    2.471   -1.713   H1    23      0MA   0.000000
   477  H61   -1.538    1.895   -1.511   H1    23      0MA   0.000000
   478   O6   -0.982    3.482   -0.293   Oh    23      0MA  -0.688000
   479  H6O   -0.177    3.920   -0.007   Ho    23      0MA   0.422000
   480   O5   -1.323    0.717    0.857   Os    23      0MA  -0.507000
   481   O4    1.716    0.429   -1.332   Oh    23      0MA  -0.733000
   482  H4O    2.163   -0.353   -1.681   Ho    23      0MA   0.438000
   483   O3    1.461   -2.277   -0.347   Oh    23      0MA  -0.696000
   484  H3O    1.928   -2.820    0.298   Ho    23      0MA   0.431000
   485   O2   -1.328   -2.278    0.199   Oh    23      0MA  -0.717000
   486  H2O   -0.826   -2.887   -0.357   Ho    23      0MA   0.446000
   487   C1   -1.502   -0.693    1.249   Cg    24      0MB   0.314000
   488   H1   -1.020   -0.650    2.227   H2    24      0MB   0.000000
   489   O5   -1.393    0.628    0.612   Os    24      0MB  -0.393000
   490   C5   -0.004    1.086    0.289   Cg    24      0MB   0.206000
   491   H5    0.519    1.253    1.233   H1    24      0MB   0.000000
   492   C6   -0.084    2.422   -0.471   Cg    24      0MB   0.273000
   493  H62   -0.606    2.286   -1.419   H1    24      0MB   0.000000
   494  H61    0.916    2.802   -0.682   H1    24      0MB   0.000000
   495   O6   -0.793    3.393    0.319   Oh    24      0MB  -0.680000
   496  H6O   -1.657    3.032    0.542   Ho    24      0MB   0.419000
   497   C4    0.759    0.006   -0.519   Cg    24      0MB   0.349000
   498   H4    0.350   -0.058   -1.528   H1    24      0MB   0.000000
   499   O4    2.153    0.403   -0.608   Oh    24      0MB  -0.746000
   500  H4O    2.555   -0.065   -1.348   Ho    24      0MB   0.443000
   501   C3    0.654   -1.373    0.187   Cg    24      0MB   0.263000
   502   H3    1.103   -1.293    1.179   H1    24      0MB   0.000000
   503   O3    1.390   -2.409   -0.527   Oh    24      0MB  -0.692000
   504  H3O    2.323   -2.360   -0.295   Ho    24      0MB   0.430000
   505   C2   -0.828   -1.781    0.368   Cg    24      0MB   0.241000
   506   H2   -0.891   -2.751    0.864   H1    24      0MB   0.000000
   507   O2   -1.504   -1.860   -0.922   Oh    24      0MB  -0.664000
   508  H2O   -2.439   -2.019   -0.751   Ho    24      0MB   0.431000
   509   C1   -1.136    0.930    1.424   Cg    25      0NA   0.478000
   510   H1   -2.082    1.024    1.957   H2    25      0NA   0.000000
   511   C2   -0.399   -0.330    1.929   Cg    25      0NA   0.228000
   512   H2   -1.116   -1.152    1.877   H1    25      0NA   0.000000
   513   C3    0.822   -0.751    1.089   Cg    25      0NA   0.330000
   514   H3    1.205   -1.710    1.442   H1    25      0NA   0.000000
   515   C4    0.388   -0.867   -0.387   Cg    25      0NA   0.167000
   516   H4   -0.308   -1.703   -0.470   H1    25      0NA   0.000000
   517   C5   -0.305    0.402   -0.931   Cg    25      0NA   0.404000
   518   H5    0.413    1.225   -0.940   H1    25      0NA   0.000000
   519   C6   -0.889    0.232   -2.341   Cg    25      0NA   0.280000
   520  H62   -0.116   -0.087   -3.039   H1    25      0NA   0.000000
   521  H61   -1.683   -0.517   -2.340   H1    25      0NA   0.000000
   522   O6   -1.419    1.489   -2.782   Oh    25      0NA  -0.663000
   523  H6O   -0.718    2.144   -2.798   Ho    25      0NA   0.396000
   524   O5   -1.426    0.759   -0.018   Os    25      0NA  -0.611000
   525   O4    1.538   -1.174   -1.196   Oh    25      0NA  -0.733000
   526  H4O    2.166   -0.450   -1.147   Ho    25      0NA   0.444000
   527   O3    1.864    0.243    1.216   Oh    25      0NA  -0.714000
   528  H3O    2.643   -0.047    0.735   Ho    25      0NA   0.441000
   529   O2   -0.039   -0.187    3.314   Oh    25      0NA  -0.668000
   530  H2O    0.596    0.527    3.406   Ho    25      0NA   0.415000
   531   C1   -1.503   -0.621    0.983   Cg    26      0NB   0.422000
   532   H1   -1.102   -0.499    1.991   H2    26      0NB   0.000000
   533   O5   -1.409    0.658    0.264   Os    26      0NB  -0.507000
   534   C5   -0.022    1.125   -0.061   Cg    26      0NB   0.198000
   535   H5    0.517    1.287    0.874   H1    26      0NB   0.000000
   536   C6   -0.093    2.467   -0.815   Cg    26      0NB   0.313000
   537  H62   -0.623    2.344   -1.760   H1    26      0NB   0.000000
   538  H61    0.908    2.845   -1.025   H1    26      0NB   0.000000
   539   O6   -0.793    3.427   -0.005   Oh    26      0NB  -0.689000
   540  H6O   -1.595    3.007    0.319   Ho    26      0NB   0.418000
   541   C4    0.692    0.020   -0.875   Cg    26      0NB   0.286000
   542   H4    0.162   -0.115   -1.819   H1    26      0NB   0.000000
   543   O4    2.052    0.407   -1.181   Oh    26      0NB  -0.707000
   544  H4O    2.606    0.179   -0.423   Ho    26      0NB   0.430000
   545   C3    0.694   -1.325   -0.113   Cg    26      0NB   0.234000
   546   H3    1.169   -2.095   -0.726   H1    26      0NB   0.000000
   547   O3    1.452   -1.188    1.125   Oh    26      0NB  -0.615000
   548  H3O    1.290   -1.980    1.655   Ho    26      0NB   0.389000
   549   C2   -0.754   -1.749    0.211   Cg    26      0NB   0.301000
   550   H2   -1.274   -1.938   -0.731   H1    26      0NB   0.000000
   551   O2   -0.731   -2.996    0.967   Oh    26      0NB  -0.703000
   552  H2O   -1.643   -3.261    1.145   Ho    26      0NB   0.424000
   553   C1   -0.866   -0.143    1.715   Cg    27      0OA   0.305000
   554   H1   -1.787   -0.483    2.188   H2    27      0OA   0.000000
   555   C2   -0.213   -1.335    0.943   Cg    27      0OA   0.413000
   556   H2   -0.977   -1.828    0.340   H1    27      0OA   0.000000
   557   C3    0.928   -0.840    0.022   Cg    27      0OA   0.251000
   558   H3    1.701   -0.390    0.649   H1    27      0OA   0.000000
   559   C4    0.402    0.249   -0.948   Cg    27      0OA   0.267000
   560   H4    1.210    0.571   -1.607   H1    27      0OA   0.000000
   561   C5   -0.118    1.455   -0.143   Cg    27      0OA   0.054000
   562   H5    0.705    1.867    0.444   H1    27      0OA   0.000000
   563   C6   -0.544    2.539   -1.190    C    27      0OA   0.896000
   564  O6A    0.245    3.497   -1.355   O2    27      0OA  -0.822000
   565  O6B   -1.587    2.321   -1.853   O2    27      0OA  -0.822000
   566   O5   -1.186    0.982    0.822   Os    27      0OA  -0.424000
   567   O4   -0.700   -0.244   -1.761   Oh    27      0OA  -0.704000
   568  H4O   -1.227    0.540   -2.025   Ho    27      0OA   0.429000
   569   O3    1.560   -1.945   -0.693   Oh    27      0OA  -0.725000
   570  H3O    1.535   -2.714   -0.113   Ho    27      0OA   0.416000
   571   O2    0.301   -2.309    1.908   Oh    27      0OA  -0.771000
   572  H2O    0.618   -1.790    2.658   Ho    27      0OA   0.431000
   573   C1   -1.556   -0.317    1.218   Cg    28      0OB   0.301000
   574   H1   -1.146   -0.219    2.224   H2    28      0OB   0.000000
   575   O5   -1.469    0.981    0.549   Os    28      0OB  -0.414000
   576   C5   -0.085    1.463    0.201   Cg    28      0OB   0.049000
   577   H5    0.466    1.527    1.141   H1    28      0OB   0.000000
   578   C6    0.071    2.889   -0.447    C    28      0OB   0.838000
   579  O6B    1.233    3.218   -0.792   O2    28      0OB  -0.794000
   580  O6A   -0.928    3.646   -0.486   O2    28      0OB  -0.794000
   581   C4    0.617    0.404   -0.666   Cg    28      0OB   0.260000
   582   H4    1.649    0.704   -0.854   H1    28      0OB   0.000000
   583   O4   -0.067    0.282   -1.938   Oh    28      0OB  -0.661000
   584  H4O    0.333   -0.451   -2.413   Ho    28      0OB   0.402000
   585   C3    0.630   -0.970    0.046   Cg    28      0OB   0.259000
   586   H3    1.214   -0.871    0.964   H1    28      0OB   0.000000
   587   O3    1.319   -1.938   -0.813   Oh    28      0OB  -0.708000
   588  H3O    2.268   -1.815   -0.726   Ho    28      0OB   0.404000
   589   C2   -0.802   -1.432    0.430   Cg    28      0OB   0.383000
   590   H2   -1.359   -1.682   -0.474   H1    28      0OB   0.000000
   591   O2   -0.742   -2.612    1.288   Oh    28      0OB  -0.732000
   592  H2O   -1.647   -2.806    1.549   Ho    28      0OB   0.401000
   593   C2   -0.953    0.805    0.390   Cg    29      0PA   0.417000
   594   C1   -2.406    0.795    0.904   Cg    29      0PA   0.327000
   595  H12   -2.427    0.828    1.994   H1    29      0PA   0.000000
   596  H11   -2.949    1.663    0.528   H1    29      0PA   0.000000
   597   O1   -3.078   -0.395    0.463   Oh    29      0PA  -0.644000
   598  H1O   -2.620   -1.166    0.804   Ho    29      0PA   0.393000
   599   C3   -0.074   -0.384    0.880   Cg    29      0PA   0.150000
   600   H3   -0.619   -1.302    0.654   H1    29      0PA   0.000000
   601   C4    1.297   -0.520    0.185   Cg    29      0PA   0.394000
   602   H4    1.783   -1.447    0.493   H1    29      0PA   0.000000
   603   C5    1.074   -0.523   -1.340   Cg    29      0PA   0.153000
   604   H5    0.519   -1.423   -1.606   H1    29      0PA   0.000000
   605   C6    0.284    0.696   -1.838   Cg    29      0PA   0.393000
   606  H6E    0.074    0.604   -2.903   H1    29      0PA   0.000000
   607  H6A    0.850    1.615   -1.680   H1    29      0PA   0.000000
   608   O6   -0.997    0.778   -1.097   Os    29      0PA  -0.598000
   609   O5    2.338   -0.569   -2.023   Oh    29      0PA  -0.693000
   610  H5O    2.830   -1.342   -1.736   Ho    29      0PA   0.428000
   611   O4    2.141    0.594    0.552   Oh    29      0PA  -0.702000
   612  H4O    2.267    0.599    1.504   Ho    29      0PA   0.432000
   613   O3    0.096   -0.353    2.311   Oh    29      0PA  -0.665000
   614  H3O    0.568    0.445    2.558   Ho    29      0PA   0.409000
   615   C2   -1.407   -0.004    0.299   Cg    30      0PB   0.407000
   616   O6   -1.239    1.249   -0.468   Os    30      0PB  -0.540000
   617   C6    0.147    1.666   -0.790   Cg    30      0PB   0.364000
   618  H6E    0.116    2.591   -1.366   H1    30      0PB   0.000000
   619  H6A    0.695    1.860    0.134   H1    30      0PB   0.000000
   620   C5    0.827    0.554   -1.611   Cg    30      0PB   0.188000
   621   H5    0.290    0.454   -2.555   H1    30      0PB   0.000000
   622   O5    2.202    0.912   -1.919   Oh    30      0PB  -0.705000
   623  H5O    2.761    0.645   -1.176   Ho    30      0PB   0.433000
   624   C4    0.772   -0.800   -0.868   Cg    30      0PB   0.328000
   625   H4    1.160   -1.582   -1.522   H1    30      0PB   0.000000
   626   O4    1.615   -0.742    0.315   Oh    30      0PB  -0.698000
   627  H4O    1.524   -1.600    0.752   Ho    30      0PB   0.427000
   628   C3   -0.673   -1.163   -0.448   Cg    30      0PB   0.180000
   629   H3   -1.217   -1.362   -1.374   H1    30      0PB   0.000000
   630   O3   -0.678   -2.405    0.323   Oh    30      0PB  -0.681000
   631  H3O   -1.591   -2.712    0.400   Ho    30      0PB   0.422000
   632   C1   -1.011    0.175    1.809   Cg    30      0PB   0.379000
   633  H12   -1.239   -0.736    2.365   H1    30      0PB   0.000000
   634  H11    0.058    0.357    1.902   H1    30      0PB   0.000000
   635   O1   -1.701    1.284    2.443   Oh    30      0PB  -0.720000
   636  H1O   -1.412    1.360    3.356   Ho    30      0PB   0.410000
   637   C1   -0.682    1.584   -1.151   Cg    31      0QA   0.465000
   638   H1   -0.446    2.430   -1.796   H1    31      0QA   0.000000
   639   C2   -0.295    0.256   -1.864   Cg    31      0QA   0.281000
   640   H2    0.746    0.340   -2.180   H1    31      0QA   0.000000
   641   C3   -0.415   -0.945   -0.892   Cg    31      0QA   0.312000
   642   H3   -1.469   -1.125   -0.671   H1    31      0QA   0.000000
   643   C4    0.356   -0.705    0.430   Cg    31      0QA   0.208000
   644   H4    1.428   -0.691    0.222   H1    31      0QA   0.000000
   645   C5   -0.046    0.631    1.097   Cg    31      0QA   0.234000
   646   H5   -1.081    0.560    1.437   H1    31      0QA   0.000000
   647   C6    0.827    1.020    2.293   Cg    31      0QA   0.060000
   648  H63    1.877    1.114    2.013   Hc    31      0QA   0.000000
   649  H62    0.764    0.278    3.091   Hc    31      0QA   0.000000
   650  H61    0.513    1.974    2.718   Hc    31      0QA   0.000000
   651   O5    0.047    1.742    0.113   Os    31      0QA  -0.559000
   652   O4    0.075   -1.796    1.353   Oh    31      0QA  -0.664000
   653  H4O    0.745   -1.831    2.043   Ho    31      0QA   0.403000
   654   O3    0.142   -2.137   -1.503   Oh    31      0QA  -0.697000
   655  H3O    0.067   -2.853   -0.864   Ho    31      0QA   0.424000
   656   O2   -1.111    0.080   -3.067   Oh    31      0QA  -0.695000
   657  H2O   -2.042    0.074   -2.823   Ho    31      0QA   0.422000
   658   C1   -1.502   -0.372    1.233   Cg    32      0QB   0.391000
   659   H1   -1.033   -0.196    2.203   H1    32      0QB   0.000000
   660   O5   -1.475    0.859    0.446   Os    32      0QB  -0.535000
   661   C5   -0.121    1.362    0.097   Cg    32      0QB   0.271000
   662   H5    0.415    1.577    1.023   H1    32      0QB   0.000000
   663   C6   -0.310    2.673   -0.671   Cg    32      0QB   0.048000
   664  H63   -0.848    2.518   -1.607   Hc    32      0QB   0.000000
   665  H62    0.648    3.135   -0.915   Hc    32      0QB   0.000000
   666  H61   -0.874    3.397   -0.083   Hc    32      0QB   0.000000
   667   C4    0.642    0.272   -0.694   Cg    32      0QB   0.250000
   668   H4    0.177    0.146   -1.674   H1    32      0QB   0.000000
   669   O4    2.016    0.702   -0.881   Oh    32      0QB  -0.713000
   670  H4O    2.495   -0.021   -1.306   Ho    32      0QB   0.421000
   671   C3    0.632   -1.083    0.056   Cg    32      0QB   0.300000
   672   H3    1.246   -0.996    0.955   H1    32      0QB   0.000000
   673   O3    1.216   -2.099   -0.804   Oh    32      0QB  -0.689000
   674  H3O    1.130   -2.947   -0.349   Ho    32      0QB   0.420000
   675   C2   -0.793   -1.523    0.466   Cg    32      0QB   0.323000
   676   H2   -1.369   -1.769   -0.428   H1    32      0QB   0.000000
   677   O2   -0.702   -2.713    1.308   Oh    32      0QB  -0.713000
   678  H2O   -1.591   -2.923    1.623   Ho    32      0QB   0.420000
   679   C1   -1.598    0.884    0.603   Cg    33      0RA   0.488000
   680   H1   -2.633    0.834    0.943   H2    33      0RA   0.000000
   681   C2   -0.837   -0.355    1.133   Cg    33      0RA   0.253000
   682   H2   -1.441   -1.225    0.873   H1    33      0RA   0.000000
   683   C3    0.558   -0.580    0.516   Cg    33      0RA   0.345000
   684   H3    0.966   -1.535    0.850   H1    33      0RA   0.000000
   685   C4    0.416   -0.573   -1.019   Cg    33      0RA   0.122000
   686   H4   -0.171   -1.444   -1.315   H1    33      0RA   0.000000
   687   C5   -0.283    0.685   -1.560   Cg    33      0RA   0.377000
   688  H5E   -0.448    0.595   -2.634   H1    33      0RA   0.000000
   689  H5A    0.328    1.572   -1.383   H1    33      0RA   0.000000
   690   O5   -1.590    0.848   -0.880   Os    33      0RA  -0.561000
   691   O4    1.710   -0.686   -1.635   Oh    33      0RA  -0.663000
   692  H4O    2.241    0.080   -1.406   Ho    33      0RA   0.419000
   693   O3    1.449    0.479    0.930   Oh    33      0RA  -0.737000
   694  H3O    2.324    0.319    0.569   Ho    33      0RA   0.443000
   695   O2   -0.759   -0.326    2.570   Oh    33      0RA  -0.711000
   696  H2O   -0.230    0.427    2.845   Ho    33      0RA   0.419000
   697   C1   -1.720   -0.072    0.825   Cg    34      0RB   0.481000
   698   H1   -1.391    0.004    1.861   H2    34      0RB   0.000000
   699   O5   -1.608    1.239    0.169   Os    34      0RB  -0.576000
   700   C5   -0.219    1.728   -0.045   Cg    34      0RB   0.335000
   701  H5E   -0.255    2.658   -0.613   H1    34      0RB   0.000000
   702  H5A    0.239    1.943    0.922   H1    34      0RB   0.000000
   703   C4    0.602    0.666   -0.817   Cg    34      0RB   0.236000
   704   H4    0.166    0.547   -1.810   H1    34      0RB   0.000000
   705   O4    1.976    1.109   -0.987   Oh    34      0RB  -0.695000
   706  H4O    2.420    0.575   -1.654   Ho    34      0RB   0.411000
   707   C3    0.565   -0.698   -0.086   Cg    34      0RB   0.203000
   708   H3    1.131   -1.436   -0.657   H1    34      0RB   0.000000
   709   O3    1.183   -0.542    1.228   Oh    34      0RB  -0.696000
   710  H3O    2.077   -0.198    1.115   Ho    34      0RB   0.428000
   711   C2   -0.911   -1.154    0.038   Cg    34      0RB   0.385000
   712   H2   -1.329   -1.225   -0.969   H1    34      0RB   0.000000
   713   O2   -1.002   -2.484    0.630   Oh    34      0RB  -0.732000
   714  H2O   -1.923   -2.660    0.849   Ho    34      0RB   0.414000
   715   C2   -2.654    0.054   -1.212   Cy    35      0SA   0.237000
   716   C1   -2.332    1.425   -2.048    C    35      0SA   0.789000
   717  O1A   -2.061    2.446   -1.360   O2    35      0SA  -0.761000
   718  O1B   -2.245    1.372   -3.299   O2    35      0SA  -0.761000
   719   C3   -2.283   -1.241   -1.978   Cg    35      0SA   0.006000
   720  H3E   -2.729   -1.241   -2.975   Hc    35      0SA   0.000000
   721  H3A   -2.703   -2.114   -1.470   Hc    35      0SA   0.000000
   722   C4   -0.756   -1.405   -2.074   Cg    35      0SA   0.332000
   723   H4   -0.372   -0.652   -2.764   H1    35      0SA   0.000000
   724   C5   -0.034   -1.238   -0.701   Cg    35      0SA   0.308000
   725   H5   -0.315   -2.076   -0.059   H1    35      0SA   0.000000
   726   C6   -0.523    0.071   -0.045   Cg    35      0SA   0.220000
   727   H6   -0.236    0.873   -0.725   H1    35      0SA   0.000000
   728   C7    0.062    0.485    1.321   Cg    35      0SA   0.111000
   729   H7    1.118    0.714    1.176   H1    35      0SA   0.000000
   730   C8   -0.627    1.757    1.894   Cg    35      0SA   0.492000
   731   H8   -1.685    1.560    2.073   H1    35      0SA   0.000000
   732   C9    0.026    2.237    3.218   Cg    35      0SA   0.178000
   733  H9S    0.015    1.434    3.955   H1    35      0SA   0.000000
   734  H9R    1.066    2.513    3.040   H1    35      0SA   0.000000
   735   O9   -0.671    3.378    3.776   Oh    35      0SA  -0.689000
   736  H9O   -0.779    4.020    3.064   Ho    35      0SA   0.408000
   737   O8   -0.506    2.842    0.926   Oh    35      0SA  -0.739000
   738  H8O   -1.102    2.684    0.160   Ho    35      0SA   0.412000
   739   O7   -0.011   -0.632    2.259   Oh    35      0SA  -0.721000
   740  H7O    0.601   -1.341    1.981   Ho    35      0SA   0.435000
   741   O6   -1.961    0.014    0.042   Oy    35      0SA  -0.403000
   742   N5    1.442   -1.226   -0.863   Ng    35      0SA  -0.629000
   743  H5N    1.819   -0.716   -1.644    H    35      0SA   0.280000
   744  C5N    2.288   -1.743    0.034    C    35      0SA   0.632000
   745  CME    3.788   -1.633   -0.300   Cg    35      0SA  -0.003000
   746  H3M    3.949   -1.642   -1.380   Hc    35      0SA   0.000000
   747  H2M    4.327   -2.474    0.139   Hc    35      0SA   0.000000
   748  H1M    4.183   -0.704    0.114   Hc    35      0SA   0.000000
   749  O5N    1.898   -2.263    1.076    O    35      0SA  -0.593000
   750   O4   -0.474   -2.713   -2.634   Oh    35      0SA  -0.762000
   751  H4O    0.475   -2.824   -2.717   Ho    35      0SA   0.415000
   752   C2   -0.096   -0.905    2.715   Cy    36      0SB   0.090000
   753   O6    0.189    0.155    1.774   Oy    36      0SB  -0.344000
   754   C6   -0.239    0.030    0.402   Cg    36      0SB  -0.008000
   755   H6   -1.322   -0.114    0.411   H1    36      0SB   0.000000
   756   C7    0.006    1.364   -0.342   Cg    36      0SB   0.278000
   757   H7   -0.559    1.327   -1.274   H1    36      0SB   0.000000
   758   O7    1.407    1.479   -0.692   Oh    36      0SB  -0.656000
   759  H7O    1.627    0.827   -1.382   Ho    36      0SB   0.390000
   760   C8   -0.446    2.630    0.441   Cg    36      0SB   0.367000
   761   H8    0.196    2.770    1.312   H1    36      0SB   0.000000
   762   O8   -1.816    2.438    0.907   Oh    36      0SB  -0.704000
   763  H8O   -1.795    1.730    1.565   Ho    36      0SB   0.392000
   764   C9   -0.405    3.908   -0.431   Cg    36      0SB   0.201000
   765  H9S    0.604    4.077   -0.805   H1    36      0SB   0.000000
   766  H9R   -1.070    3.797   -1.289   H1    36      0SB   0.000000
   767   O9   -0.813    5.066    0.330   Oh    36      0SB  -0.672000
   768  H9O   -1.593    4.809    0.837   Ho    36      0SB   0.393000
   769   C5    0.381   -1.239   -0.213   Cg    36      0SB   0.523000
   770   H5    1.464   -1.113   -0.281   H1    36      0SB   0.000000
   771   N5   -0.178   -1.463   -1.560   Ng    36      0SB  -0.669000
   772  H5N   -1.095   -1.872   -1.612    H    36      0SB   0.261000
   773  C5N    0.436   -1.083   -2.679    C    36      0SB   0.678000
   774  O5N    1.489   -0.454   -2.655    O    36      0SB  -0.634000
   775  CME   -0.241   -1.476   -4.006   Cg    36      0SB  -0.005000
   776  H3M   -1.310   -1.649   -3.866   Hc    36      0SB   0.000000
   777  H2M    0.221   -2.386   -4.391   Hc    36      0SB   0.000000
   778  H1M   -0.110   -0.676   -4.736   Hc    36      0SB   0.000000
   779   C4    0.094   -2.472    0.690   Cg    36      0SB   0.203000
   780   H4   -0.979   -2.673    0.684   H1    36      0SB   0.000000
   781   O4    0.774   -3.672    0.212   Oh    36      0SB  -0.714000
   782  H4O    0.485   -3.888   -0.679   Ho    36      0SB   0.390000
   783   C3    0.532   -2.199    2.139   Cg    36      0SB   0.133000
   784  H3E    0.271   -3.053    2.770   Hc    36      0SB   0.000000
   785  H3A    1.622   -2.135    2.171   Hc    36      0SB   0.000000
   786   C1    0.604   -0.671    4.160    C    36      0SB   0.979000
   787  O1B   -0.181   -0.697    5.144   O2    36      0SB  -0.839000
   788  O1A    1.847   -0.518    4.226   O2    36      0SB  -0.839000
   789   C1   -0.963    1.044    1.392   Cg    37      0TA   0.456000
   790   H1   -1.926    1.056    1.905   H2    37      0TA   0.000000
   791   C2   -0.101   -0.104    1.954   Cg    37      0TA   0.245000
   792   H2    0.252    0.147    2.956   H1    37      0TA   0.000000
   793   C3    1.104   -0.424    1.042   Cg    37      0TA   0.124000
   794   H3    1.789    0.422    1.118   H1    37      0TA   0.000000
   795   C4    0.762   -0.586   -0.454   Cg    37      0TA   0.434000
   796   H4    1.683   -0.680   -1.032   H1    37      0TA   0.000000
   797   C5   -0.032    0.644   -0.943   Cg    37      0TA   0.157000
   798   H5    0.622    1.513   -0.854   H1    37      0TA   0.000000
   799   C6   -0.511    0.566   -2.400   Cg    37      0TA   0.304000
   800  H62    0.325    0.339   -3.061   H1    37      0TA   0.000000
   801  H61   -1.268   -0.212   -2.519   H1    37      0TA   0.000000
   802   O6   -1.070    1.833   -2.772   Oh    37      0TA  -0.669000
   803  H6O   -0.402    2.516   -2.680   Ho    37      0TA   0.401000
   804   O5   -1.211    0.858   -0.061   Os    37      0TA  -0.480000
   805   O4   -0.032   -1.773   -0.659   Oh    37      0TA  -0.731000
   806  H4O   -0.237   -1.864   -1.592   Ho    37      0TA   0.417000
   807   O3    1.821   -1.574    1.528   Oh    37      0TA  -0.687000
   808  H3O    2.071   -1.432    2.444   Ho    37      0TA   0.442000
   809   O2   -0.966   -1.250    2.061   Oh    37      0TA  -0.655000
   810  H2O   -1.710   -1.038    2.630   Ho    37      0TA   0.436000
   811   C1   -1.540    0.319    1.231   Cg    38      0TB   0.306000
   812   H1   -1.295    1.269    1.709   H2    38      0TB   0.000000
   813   O5   -1.368    0.479   -0.231   Os    38      0TB  -0.354000
   814   C5   -0.008    0.901   -0.659   Cg    38      0TB   0.031000
   815   H5    0.230    1.840   -0.153   H1    38      0TB   0.000000
   816   C6   -0.025    1.177   -2.169   Cg    38      0TB   0.349000
   817  H62   -0.375    0.302   -2.719   H1    38      0TB   0.000000
   818  H61    0.976    1.429   -2.518   H1    38      0TB   0.000000
   819   O6   -0.902    2.282   -2.428   Oh    38      0TB  -0.666000
   820  H6O   -1.785    2.068   -2.117   Ho    38      0TB   0.406000
   821   C4    1.027   -0.150   -0.194   Cg    38      0TB   0.314000
   822   H4    2.035    0.223   -0.384   H1    38      0TB   0.000000
   823   O4    0.838   -1.361   -0.955   Oh    38      0TB  -0.626000
   824  H4O    0.950   -1.173   -1.889   Ho    38      0TB   0.413000
   825   C3    0.857   -0.437    1.317   Cg    38      0TB   0.174000
   826   H3    1.141    0.475    1.844   H1    38      0TB   0.000000
   827   O3    1.772   -1.461    1.746   Oh    38      0TB  -0.678000
   828  H3O    1.557   -2.286    1.305   Ho    38      0TB   0.425000
   829   C2   -0.585   -0.775    1.756   Cg    38      0TB   0.340000
   830   H2   -0.640   -0.827    2.844   H1    38      0TB   0.000000
   831   O2   -0.977   -2.051    1.205   Oh    38      0TB  -0.637000
   832  H2O   -1.883   -2.243    1.459   Ho    38      0TB   0.397000
   833   C1   -1.977    0.387    0.343   Cg    39      0UA   0.363000
   834   H1   -1.952    1.277   -0.285   H2    39      0UA   0.000000
   835   C2   -1.507   -0.867   -0.455   Cg    39      0UA   0.259000
   836   H2   -1.784   -1.762    0.104   H1    39      0UA   0.000000
   837   C3    0.037   -0.850   -0.641   Cg    39      0UA   0.417000
   838   H3    0.294   -0.089   -1.381   H1    39      0UA   0.000000
   839   C4    0.814   -0.548    0.667   Cg    39      0UA   0.223000
   840   H4    0.624   -1.357    1.376   H1    39      0UA   0.000000
   841   C5    0.319    0.771    1.292   Cg    39      0UA   0.232000
   842   H5    0.789    0.866    2.272   H1    39      0UA   0.000000
   843   C6    0.819    2.029    0.456    C    39      0UA   0.697000
   844  O6A   -0.038    2.836    0.029   O2    39      0UA  -0.757000
   845  O6B    2.050    2.109    0.224   O2    39      0UA  -0.757000
   846   O5   -1.155    0.610    1.535   Os    39      0UA  -0.515000
   847   O4    2.253   -0.500    0.421   Oh    39      0UA  -0.711000
   848  H4O    2.494    0.441    0.260   Ho    39      0UA   0.397000
   849   O3    0.503   -2.137   -1.131   Oh    39      0UA  -0.771000
   850  H3O    1.461   -2.124   -1.010   Ho    39      0UA   0.417000
   851   O2   -2.179   -0.905   -1.761   Oh    39      0UA  -0.685000
   852  H2O   -1.867   -0.186   -2.316   Ho    39      0UA   0.385000
   853   C1    0.155    0.597    1.953   Cg    40      0UB   0.278000
   854   H1    0.697    0.894    2.852   H2    40      0UB   0.000000
   855   O5    0.193    1.716    0.988   Os    40      0UB  -0.430000
   856   C5   -0.362    1.471   -0.398   Cg    40      0UB   0.194000
   857   H5   -0.075    2.332   -1.003   H1    40      0UB   0.000000
   858   C6   -1.934    1.375   -0.535    C    40      0UB   0.750000
   859  O6B   -2.403    1.072   -1.658   O2    40      0UB  -0.783000
   860  O6A   -2.618    1.577    0.494   O2    40      0UB  -0.783000
   861   C4    0.340    0.232   -1.000   Cg    40      0UB   0.308000
   862   H4    1.394    0.484   -1.136   H1    40      0UB   0.000000
   863   O4   -0.195   -0.104   -2.312   Oh    40      0UB  -0.745000
   864  H4O   -1.129    0.214   -2.330   Ho    40      0UB   0.422000
   865   C3    0.260   -0.998   -0.057   Cg    40      0UB   0.286000
   866   H3   -0.778   -1.313    0.057   H1    40      0UB   0.000000
   867   O3    1.024   -2.095   -0.643   Oh    40      0UB  -0.755000
   868  H3O    0.780   -2.109   -1.579   Ho    40      0UB   0.421000
   869   C2    0.863   -0.636    1.319   Cg    40      0UB   0.289000
   870   H2    1.907   -0.362    1.163   H1    40      0UB   0.000000
   871   O2    0.862   -1.795    2.199   Oh    40      0UB  -0.680000
   872  H2O    1.019   -2.554    1.625   Ho    40      0UB   0.422000
   873   C1   -0.554    1.436    0.024   Cg    41      0VA   0.389000
   874   H1   -0.368    2.239   -0.690   H2    41      0VA   0.000000
   875   C2   -0.174    0.074   -0.642   Cg    41      0VA   0.399000
   876   H2    0.838    0.175   -1.042   H1    41      0VA   0.000000
   877   C3   -0.158   -1.069    0.406   Cg    41      0VA   0.176000
   878   H3   -1.173   -1.208    0.780   H1    41      0VA   0.000000
   879   C4    0.751   -0.727    1.610   Cg    41      0VA   0.326000
   880   H4    0.675   -1.521    2.354   H1    41      0VA   0.000000
   881   C5    0.334    0.616    2.259   Cg    41      0VA   0.112000
   882   H5   -0.669    0.473    2.663   H1    41      0VA   0.000000
   883   C6    1.217    1.061    3.444   Cg    41      0VA   0.362000
   884  H62    0.820    1.975    3.885   H1    41      0VA   0.000000
   885  H61    1.216    0.287    4.211   H1    41      0VA   0.000000
   886   O6    2.568    1.295    3.021   Oh    41      0VA  -0.711000
   887  H6O    2.725    0.717    2.255   Ho    41      0VA   0.424000
   888   O5    0.244    1.701    1.231   Os    41      0VA  -0.466000
   889   O4    2.127   -0.659    1.156   Oh    41      0VA  -0.701000
   890  H4O    2.282   -1.452    0.624   Ho    41      0VA   0.442000
   891   O3    0.273   -2.342   -0.170   Oh    41      0VA  -0.678000
   892  H3O   -0.298   -2.589   -0.906   Ho    41      0VA   0.425000
   893   N2   -1.078   -0.259   -1.769   Ng    41      0VA  -0.595000
   894  H2N   -1.950   -0.710   -1.545    H    41      0VA   0.238000
   895  C2N   -0.916    0.247   -2.995    C    41      0VA   0.625000
   896  CME   -1.998   -0.113   -4.032   Cg    41      0VA   0.032000
   897  H3M   -2.989    0.089   -3.624   Hc    41      0VA   0.000000
   898  H2M   -1.865    0.481   -4.937   Hc    41      0VA   0.000000
   899  H1M   -1.922   -1.171   -4.288   Hc    41      0VA   0.000000
   900  O2N    0.044    0.955   -3.283    O    41      0VA  -0.605000
   901   C1   -1.258    0.538    0.916   Cg    42      0VB   0.305000
   902   H1   -0.812    0.652    1.905   H2    42      0VB   0.000000
   903   O5   -1.155    1.826    0.211   Os    42      0VB  -0.408000
   904   C5    0.228    2.286   -0.120   Cg    42      0VB   0.136000
   905   H5    0.761    2.454    0.819   H1    42      0VB   0.000000
   906   C6    0.167    3.622   -0.881   Cg    42      0VB   0.353000
   907  H62   -0.445    3.531   -1.778   H1    42      0VB   0.000000
   908  H61    1.170    3.937   -1.175   H1    42      0VB   0.000000
   909   O6   -0.401    4.622   -0.020   Oh    42      0VB  -0.714000
   910  H6O   -1.276    4.321    0.239   Ho    42      0VB   0.427000
   911   C4    0.987    1.187   -0.896   Cg    42      0VB   0.253000
   912   H4    2.026    1.492   -1.028   H1    42      0VB   0.000000
   913   O4    0.391    1.015   -2.201   Oh    42      0VB  -0.690000
   914  H4O    0.700    0.172   -2.563   Ho    42      0VB   0.440000
   915   C3    0.944   -0.161   -0.144   Cg    42      0VB   0.152000
   916   H3    1.449   -0.030    0.815   H1    42      0VB   0.000000
   917   O3    1.710   -1.146   -0.906   Oh    42      0VB  -0.665000
   918  H3O    2.651   -1.083   -0.712   Ho    42      0VB   0.415000
   919   C2   -0.522   -0.607    0.137   Cg    42      0VB   0.544000
   920   H2   -1.034   -0.749   -0.816   H1    42      0VB   0.000000
   921   N2   -0.543   -1.872    0.907   Ng    42      0VB  -0.686000
   922  H2N   -0.315   -1.835    1.885    H    42      0VB   0.254000
   923  C2N   -0.882   -3.044    0.362    C    42      0VB   0.586000
   924  O2N   -1.198   -3.153   -0.819    O    42      0VB  -0.564000
   925  CME   -0.844   -4.270    1.298   Cg    42      0VB   0.056000
   926  H3M   -1.155   -3.993    2.307   Hc    42      0VB   0.000000
   927  H2M   -1.516   -5.044    0.926   Hc    42      0VB   0.000000
   928  H1M    0.172   -4.668    1.333   Hc    42      0VB   0.000000
   929   C1   -1.492    1.283   -0.367   Cg    43      0WA   0.462100
   930   H1   -1.349    2.118   -1.054   H2    43      0WA   0.000000
   931   C2   -1.060   -0.042   -1.055   Cg    43      0WA   0.275000
   932   H2   -1.770   -0.255   -1.858   H1    43      0WA   0.000000
   933   C3   -1.110   -1.206   -0.034   Cg    43      0WA   0.252000
   934   H3   -2.150   -1.365    0.254   H1    43      0WA   0.000000
   935   C4   -0.286   -0.906    1.244   Cg    43      0WA   0.321300
   936   H4    0.772   -0.908    0.978   H1    43      0WA   0.000000
   937   C5   -0.649    0.456    1.881   Cg    43      0WA   0.242100
   938   H5   -1.649    0.370    2.309   H1    43      0WA   0.000000
   939   C6    0.300    0.874    3.027   Cg    43      0WA   0.299500
   940  H62    0.056    1.886    3.352   H1    43      0WA   0.000000
   941  H61    0.166    0.210    3.880   H1    43      0WA   0.000000
   942   O6    1.685    0.834    2.625   Oh    43      0WA  -0.661800
   943  H6O    2.020   -0.064    2.699   Ho    43      0WA   0.395900
   944   O5   -0.711    1.538    0.851   Os    43      0WA  -0.541500
   945   O4   -0.516   -1.956    2.228   Oh    43      0WA  -0.730500
   946  H4O   -1.457   -2.057    2.413   Ho    43      0WA   0.442400
   947   O3   -0.627   -2.435   -0.645   Oh    43      0WA  -0.698700
   948  H3O   -0.533   -3.117    0.031   Ho    43      0WA   0.415900
   949   N2    0.278    0.088   -1.678   Ng    43      0WA  -0.475100
   950  H2N    1.039   -0.420   -1.257    H    43      0WA   0.214200
   951  C2N    0.511    0.768   -2.804    C    43      0WA   0.590900
   952  CME    1.962    0.733   -3.316   Cg    43      0WA  -0.034000
   953  H3M    2.629    1.159   -2.565   Hc    43      0WA   0.000000
   954  H2M    2.052    1.313   -4.236   Hc    43      0WA   0.000000
   955  H1M    2.259   -0.297   -3.518   Hc    43      0WA   0.000000
   956  O2N   -0.371    1.396   -3.385    O    43      0WA  -0.575700
   957   C1   -1.009    0.051    1.766   Cg    44      0WB   0.387000
   958   H1   -0.527    0.141    2.741   H2    44      0WB   0.000000
   959   O5   -0.956    1.346    1.085   Os    44      0WB  -0.498000
   960   C5    0.428    1.862    0.839   Cg    44      0WB   0.321000
   961   H5    0.910    2.013    1.807   H1    44      0WB   0.000000
   962   C6    0.332    3.223    0.121   Cg    44      0WB   0.247000
   963  H62   -0.146    3.101   -0.852   H1    44      0WB   0.000000
   964  H61    1.326    3.641   -0.037   H1    44      0WB   0.000000
   965   O6   -0.443    4.151    0.907   Oh    44      0WB  -0.663000
   966  H6O   -1.309    3.768    1.078   Ho    44      0WB   0.413000
   967   C4    1.242    0.820    0.031   Cg    44      0WB   0.277000
   968   H4    0.858    0.775   -0.991   H1    44      0WB   0.000000
   969   O4    2.627    1.238   -0.013   Oh    44      0WB  -0.743000
   970  H4O    3.139    0.508   -0.390   Ho    44      0WB   0.439000
   971   C3    1.164   -0.591    0.669   Cg    44      0WB   0.217000
   972   H3    1.669   -0.567    1.636   H1    44      0WB   0.000000
   973   O3    1.871   -1.545   -0.177   Oh    44      0WB  -0.658000
   974  H3O    1.461   -2.424   -0.107   Ho    44      0WB   0.413000
   975   C2   -0.300   -1.039    0.910   Cg    44      0WB   0.294000
   976   H2   -0.278   -1.961    1.495   H1    44      0WB   0.000000
   977   N2   -1.010   -1.314   -0.365   Ng    44      0WB  -0.558000
   978  H2N   -1.523   -0.555   -0.783    H    44      0WB   0.265000
   979  C2N   -1.032   -2.514   -0.954    C    44      0WB   0.585000
   980  O2N   -0.385   -3.459   -0.506    O    44      0WB  -0.600000
   981  CME   -1.876   -2.641   -2.242   Cg    44      0WB   0.056000
   982  H3M   -2.556   -1.794   -2.352   Hc    44      0WB   0.000000
   983  H2M   -2.464   -3.559   -2.210   Hc    44      0WB   0.000000
   984  H1M   -1.210   -2.673   -3.104   Hc    44      0WB   0.000000
   985   C1   -0.615    1.670   -0.699   Cg    45      0XA   0.482000
   986   H1   -0.464    2.452   -1.443   H2    45      0XA   0.000000
   987   C2   -0.167    0.302   -1.280   Cg    45      0XA   0.197000
   988   H2    0.845    0.421   -1.667   H1    45      0XA   0.000000
   989   C3   -0.148   -0.789   -0.188   Cg    45      0XA   0.359000
   990   H3   -1.172   -1.015    0.117   H1    45      0XA   0.000000
   991   C4    0.682   -0.365    1.047   Cg    45      0XA   0.247000
   992   H4    1.733   -0.277    0.769   H1    45      0XA   0.000000
   993   C5    0.193    0.990    1.589   Cg    45      0XA   0.335000
   994  H5E    0.865    1.342    2.373   H1    45      0XA   0.000000
   995  H5A   -0.802    0.884    2.024   H1    45      0XA   0.000000
   996   O5    0.140    2.011    0.507   Os    45      0XA  -0.588000
   997   O4    0.558   -1.357    2.101   Oh    45      0XA  -0.720000
   998  H4O    0.808   -2.216    1.732   Ho    45      0XA   0.420000
   999   O3    0.444   -1.985   -0.756   Oh    45      0XA  -0.712000
  1000  H3O    0.068   -2.100   -1.638   Ho    45      0XA   0.421000
  1001   O2   -1.027   -0.102   -2.394   Oh    45      0XA  -0.656000
  1002  H2O   -1.942    0.134   -2.192   Ho    45      0XA   0.409000
  1003   C1   -1.575    0.162    1.081   Cg    46      0XB   0.248000
  1004   H1   -1.110    0.305    2.058   H2    46      0XB   0.000000
  1005   O5   -1.509    1.422    0.335   Os    46      0XB  -0.447000
  1006   C5   -0.143    1.875   -0.019   Cg    46      0XB   0.303000
  1007  H5E   -0.211    2.799   -0.592   H1    46      0XB   0.000000
  1008  H5A    0.413    2.083    0.898   H1    46      0XB   0.000000
  1009   C4    0.569    0.787   -0.847   Cg    46      0XB   0.286000
  1010   H4    0.070    0.691   -1.813   H1    46      0XB   0.000000
  1011   O4    1.938    1.201   -1.067   Oh    46      0XB  -0.723000
  1012  H4O    2.397    0.465   -1.492   Ho    46      0XB   0.430000
  1013   C3    0.561   -0.577   -0.120   Cg    46      0XB   0.228000
  1014   H3    1.186   -0.508    0.773   H1    46      0XB   0.000000
  1015   O3    1.128   -1.588   -1.004   Oh    46      0XB  -0.682000
  1016  H3O    1.088   -2.441   -0.551   Ho    46      0XB   0.427000
  1017   C2   -0.872   -0.984    0.298   Cg    46      0XB   0.425000
  1018   H2   -1.458   -1.227   -0.591   H1    46      0XB   0.000000
  1019   O2   -0.794   -2.160    1.147   Oh    46      0XB  -0.699000
  1020  H2O   -1.677   -2.306    1.508   Ho    46      0XB   0.398000
  1021   C1   -0.716    1.640   -0.089   Cg    47      0YA   0.468000
  1022   H1   -0.546    2.482   -0.759   H2    47      0YA   0.000000
  1023   C2   -0.174    0.343   -0.762   Cg    47      0YA   0.245000
  1024   H2    0.846    0.558   -1.087   H1    47      0YA   0.000000
  1025   C3   -0.111   -0.843    0.229   Cg    47      0YA   0.165000
  1026   H3   -1.130   -1.159    0.462   H1    47      0YA   0.000000
  1027   C4    0.621   -0.471    1.539   Cg    47      0YA   0.322000
  1028   H4    1.684   -0.345    1.328   H1    47      0YA   0.000000
  1029   C5    0.061    0.814    2.185   Cg    47      0YA   0.246000
  1030   H5   -0.950    0.601    2.541   H1    47      0YA   0.000000
  1031   C6    0.888    1.281    3.403   Cg    47      0YA   0.328000
  1032  H62    0.857    0.525    4.188   H1    47      0YA   0.000000
  1033  H61    0.458    2.198    3.807   H1    47      0YA   0.000000
  1034   O6    2.265    1.530    3.049   Oh    47      0YA  -0.688000
  1035  H6O    2.747    1.824    3.826   Ho    47      0YA   0.421000
  1036   O5   -0.051    1.924    1.183   Os    47      0YA  -0.568000
  1037   O4    0.453   -1.568    2.469   Oh    47      0YA  -0.733000
  1038  H4O    0.677   -2.371    1.979   Ho    47      0YA   0.449000
  1039   O3    0.593   -1.964   -0.381   Oh    47      0YA  -0.630000
  1040  H3O    0.696   -1.810   -1.340   Ho    47      0YA   0.413000
  1041   N2   -0.965   -0.005   -1.971   Ng    47      0YA  -0.552000
  1042  H2N   -1.939    0.257   -1.954    H    47      0YA   0.236000
  1043  C2N   -0.491   -0.686   -3.021    C    47      0YA   0.588000
  1044  CME   -1.436   -0.864   -4.229   Cg    47      0YA   0.063000
  1045  H3M   -2.390   -0.358   -4.066   Hc    47      0YA   0.000000
  1046  H2M   -0.966   -0.448   -5.121   Hc    47      0YA   0.000000
  1047  H1M   -1.623   -1.926   -4.388   Hc    47      0YA   0.000000
  1048  O2N    0.643   -1.158   -3.019    O    47      0YA  -0.579000
  1049   C1   -1.288    0.484    0.837   Cg    48      0YB   0.287000
  1050   H1   -0.851    0.620    1.828   H2    48      0YB   0.000000
  1051   O5   -1.233    1.765    0.123   Os    48      0YB  -0.433000
  1052   C5    0.140    2.287   -0.143   Cg    48      0YB   0.208000
  1053   H5    0.639    2.443    0.816   H1    48      0YB   0.000000
  1054   C6    0.044    3.639   -0.873   Cg    48      0YB   0.289000
  1055  H62   -0.450    3.515   -1.838   H1    48      0YB   0.000000
  1056  H61    1.038    4.051   -1.047   H1    48      0YB   0.000000
  1057   O6   -0.710    4.570   -0.075   Oh    48      0YB  -0.689000
  1058  H6O   -1.561    4.173    0.129   Ho    48      0YB   0.424000
  1059   C4    0.921    1.232   -0.952   Cg    48      0YB   0.302000
  1060   H4    0.471    1.123   -1.941   H1    48      0YB   0.000000
  1061   O4    2.283    1.685   -1.107   Oh    48      0YB  -0.716000
  1062  H4O    2.770    0.967   -1.534   Ho    48      0YB   0.436000
  1063   C3    0.938   -0.140   -0.238   Cg    48      0YB   0.180000
  1064   H3    1.472   -0.039    0.709   H1    48      0YB   0.000000
  1065   O3    1.680   -1.084   -1.072   Oh    48      0YB  -0.681000
  1066  H3O    1.833   -1.910   -0.600   Ho    48      0YB   0.423000
  1067   C2   -0.508   -0.629    0.058   Cg    48      0YB   0.480000
  1068   H2   -1.015   -0.780   -0.897   H1    48      0YB   0.000000
  1069   N2   -0.492   -1.903    0.819   Ng    48      0YB  -0.722000
  1070  H2N   -0.307   -1.853    1.807    H    48      0YB   0.300000
  1071  C2N   -0.903   -3.065    0.306    C    48      0YB   0.648000
  1072  O2N   -1.215   -3.183   -0.874    O    48      0YB  -0.576000
  1073  CME   -0.922   -4.271    1.267   Cg    48      0YB   0.034000
  1074  H3M   -1.241   -3.964    2.265   Hc    48      0YB   0.000000
  1075  H2M   -1.612   -5.033    0.900   Hc    48      0YB   0.000000
  1076  H1M    0.080   -4.700    1.327   Hc    48      0YB   0.000000
  1077   C1   -1.056   -0.173    1.678   Cg    49      0ZA   0.398000
  1078   H1   -1.959   -0.503    2.192   H2    49      0ZA   0.000000
  1079   C2   -0.379   -1.384    0.986   Cg    49      0ZA   0.326000
  1080   H2   -1.140   -1.887    0.388   H1    49      0ZA   0.000000
  1081   C3    0.775   -0.957    0.048   Cg    49      0ZA   0.300000
  1082   H3    1.616   -0.620    0.658   H1    49      0ZA   0.000000
  1083   C4    0.372    0.183   -0.930   Cg    49      0ZA   0.193000
  1084   H4   -0.295   -0.218   -1.695   H1    49      0ZA   0.000000
  1085   C5   -0.342    1.366   -0.227   Cg    49      0ZA   0.187000
  1086   H5    0.400    1.841    0.418   H1    49      0ZA   0.000000
  1087   C6   -0.743    2.513   -1.263    C    49      0ZA   0.798000
  1088  O6A    0.065    2.764   -2.196   O2    49      0ZA  -0.787000
  1089  O6B   -1.806    3.144   -1.071   O2    49      0ZA  -0.787000
  1090   O5   -1.421    0.847    0.702   Os    49      0ZA  -0.544000
  1091   O4    1.558    0.714   -1.577   Oh    49      0ZA  -0.682000
  1092  H4O    1.263    1.515   -2.064   Ho    49      0ZA   0.422000
  1093   O3    1.187   -2.142   -0.696   Oh    49      0ZA  -0.743000
  1094  H3O    1.313   -2.848   -0.055   Ho    49      0ZA   0.439000
  1095   O2    0.103   -2.336    1.992   Oh    49      0ZA  -0.732000
  1096  H2O    0.488   -1.819    2.710   Ho    49      0ZA   0.406000
  1097   C1   -1.668   -0.381    1.132   Cg    50      0ZB   0.251000
  1098   H1   -1.255   -0.245    2.132   H2    50      0ZB   0.000000
  1099   O5   -1.543    0.872    0.393   Os    50      0ZB  -0.413000
  1100   C5   -0.145    1.347    0.120   Cg    50      0ZB   0.075000
  1101   H5    0.345    1.465    1.089   H1    50      0ZB   0.000000
  1102   C6    0.004    2.751   -0.599    C    50      0ZB   0.893000
  1103  O6B    1.133    3.039   -1.073   O2    50      0ZB  -0.818000
  1104  O6A   -0.992    3.507   -0.636   O2    50      0ZB  -0.818000
  1105   C4    0.598    0.243   -0.658   Cg    50      0ZB   0.267000
  1106   H4    0.168    0.181   -1.659   H1    50      0ZB   0.000000
  1107   O4    1.994    0.613   -0.781   Oh    50      0ZB  -0.733000
  1108  H4O    1.989    1.574   -1.006   Ho    50      0ZB   0.429000
  1109   C3    0.513   -1.150    0.022   Cg    50      0ZB   0.266000
  1110   H3    1.111   -1.131    0.936   H1    50      0ZB   0.000000
  1111   O3    1.100   -2.120   -0.896   Oh    50      0ZB  -0.701000
  1112  H3O    1.941   -1.738   -1.177   Ho    50      0ZB   0.403000
  1113   C2   -0.943   -1.539    0.387   Cg    50      0ZB   0.411000
  1114   H2   -1.492   -1.775   -0.527   H1    50      0ZB   0.000000
  1115   O2   -0.970   -2.702    1.265   Oh    50      0ZB  -0.740000
  1116  H2O   -1.887   -2.811    1.535   Ho    50      0ZB   0.422000
  1117   O1   -0.916    2.150    1.051   Os    51      1AA  -0.388000
  1118   C1   -1.442    0.886    0.619   Cg    51      1AA   0.448000
  1119   H1   -2.453    0.796    1.019   H2    51      1AA   0.000000
  1120   C2   -0.564   -0.247    1.200   Cg    51      1AA   0.268000
  1121   H2   -0.336   -0.041    2.248   H1    51      1AA   0.000000
  1122   C3    0.739   -0.528    0.423   Cg    51      1AA   0.335000
  1123   H3    1.178   -1.471    0.751   H1    51      1AA   0.000000
  1124   C4    0.495   -0.563   -1.100   Cg    51      1AA   0.245000
  1125   H4   -0.101   -1.447   -1.334   H1    51      1AA   0.000000
  1126   C5   -0.253    0.671   -1.614   Cg    51      1AA   0.379000
  1127  H5E   -0.478    0.565   -2.675   H1    51      1AA   0.000000
  1128  H5A    0.344    1.573   -1.477   H1    51      1AA   0.000000
  1129   O5   -1.520    0.800   -0.861   Os    51      1AA  -0.564000
  1130   O4    1.744   -0.679   -1.800   Oh    51      1AA  -0.748000
  1131  H4O    2.294    0.083   -1.601   Ho    51      1AA   0.434000
  1132   O3    1.660    0.532    0.750   Oh    51      1AA  -0.772000
  1133  H3O    1.815    0.540    1.698   Ho    51      1AA   0.461000
  1134   O2   -1.352   -1.448    1.159   Oh    51      1AA  -0.735000
  1135  H2O   -0.852   -2.172    1.542   Ho    51      1AA   0.443000
  1136   O1   -2.923   -0.337    0.920   Os    52      1AB  -0.388000
  1137   C1   -1.533   -0.065    0.887   Cg    52      1AB   0.379000
  1138   H1   -1.177    0.033    1.913   H2    52      1AB   0.000000
  1139   O5   -1.383    1.227    0.211   Os    52      1AB  -0.529000
  1140   C5    0.024    1.670    0.040   Cg    52      1AB   0.356000
  1141  H5E    0.034    2.608   -0.516   H1    52      1AB   0.000000
  1142  H5A    0.464    1.856    1.021   H1    52      1AB   0.000000
  1143   C4    0.832    0.596   -0.724   Cg    52      1AB   0.224000
  1144   H4    0.428    0.518   -1.734   H1    52      1AB   0.000000
  1145   O4    2.230    0.995   -0.837   Oh    52      1AB  -0.730000
  1146  H4O    2.620    0.610   -1.630   Ho    52      1AB   0.440000
  1147   C3    0.718   -0.786   -0.029   Cg    52      1AB   0.297000
  1148   H3    1.239   -1.534   -0.629   H1    52      1AB   0.000000
  1149   O3    1.359   -0.731    1.275   Oh    52      1AB  -0.668000
  1150  H3O    2.221   -0.310    1.160   Ho    52      1AB   0.407000
  1151   C2   -0.755   -1.206    0.155   Cg    52      1AB   0.300000
  1152   H2   -0.811   -2.122    0.746   H1    52      1AB   0.000000
  1153   O2   -1.315   -1.480   -1.166   Oh    52      1AB  -0.700000
  1154  H2O   -2.272   -1.542   -1.063   Ho    52      1AB   0.418000
  1155   C2   -1.046    0.384    1.015   Cg    53      1BA   0.130000
  1156   C3   -0.382   -0.869    0.367   Cg    53      1BA   0.372000
  1157   H3   -0.958   -1.147   -0.518   H1    53      1BA   0.000000
  1158   C4    1.058   -0.549   -0.102   Cg    53      1BA   0.335000
  1159   H4    1.677   -0.279    0.757   H1    53      1BA   0.000000
  1160   C5    1.021    0.616   -1.123   Cg    53      1BA   0.224000
  1161   H5    0.482    0.297   -2.017   H1    53      1BA   0.000000
  1162   C6    0.310    1.859   -0.545   Cg    53      1BA   0.341000
  1163  H6E    0.161    2.601   -1.329   H1    53      1BA   0.000000
  1164  H6A    0.925    2.313    0.233   H1    53      1BA   0.000000
  1165   O6   -1.014    1.498    0.038   Os    53      1BA  -0.507000
  1166   O5    2.371    0.995   -1.512   Oh    53      1BA  -0.690000
  1167  H5O    2.710    0.358   -2.149   Ho    53      1BA   0.429000
  1168   O4    1.639   -1.729   -0.738   Oh    53      1BA  -0.724000
  1169  H4O    2.594   -1.709   -0.609   Ho    53      1BA   0.421000
  1170   O3   -0.418   -2.009    1.272   Oh    53      1BA  -0.716000
  1171  H3O    0.161   -2.684    0.899   Ho    53      1BA   0.430000
  1172   C1   -2.508    0.104    1.482   Cg    53      1BA   0.428000
  1173  H12   -2.503   -0.510    2.384   H1    53      1BA   0.000000
  1174  H11   -3.005    1.044    1.723   H1    53      1BA   0.000000
  1175   O1   -3.276   -0.583    0.472   Os    53      1BA  -0.473000
  1176   C2   -1.497    0.126    0.572   Cg    54      1BB   0.227000
  1177   O6   -1.332    1.395   -0.176   Os    54      1BB  -0.477000
  1178   C6    0.059    1.830   -0.463   Cg    54      1BB   0.311000
  1179  H6E    0.031    2.741   -1.062   H1    54      1BB   0.000000
  1180  H6A    0.564    2.057    0.476   H1    54      1BB   0.000000
  1181   C5    0.807    0.716   -1.225   Cg    54      1BB   0.340000
  1182   H5    0.388    0.630   -2.229   H1    54      1BB   0.000000
  1183   O5    2.201    1.079   -1.329   Oh    54      1BB  -0.720000
  1184  H5O    2.659    0.300   -1.672   Ho    54      1BB   0.429000
  1185   C4    0.723   -0.652   -0.512   Cg    54      1BB   0.108000
  1186   H4    1.289   -0.607    0.422   H1    54      1BB   0.000000
  1187   O4    1.326   -1.673   -1.364   Oh    54      1BB  -0.675000
  1188  H4O    1.220   -2.535   -0.937   Ho    54      1BB   0.435000
  1189   C3   -0.750   -1.014   -0.193   Cg    54      1BB   0.464000
  1190   H3   -1.270   -1.201   -1.135   H1    54      1BB   0.000000
  1191   O3   -0.770   -2.242    0.584   Oh    54      1BB  -0.730000
  1192  H3O   -1.698   -2.441    0.755   Ho    54      1BB   0.432000
  1193   C1   -1.040    0.279    2.059   Cg    54      1BB   0.281000
  1194  H12   -1.309   -0.610    2.631   H1    54      1BB   0.000000
  1195  H11    0.043    0.391    2.110   H1    54      1BB   0.000000
  1196   O1   -1.644    1.430    2.688   Os    54      1BB  -0.425000
  1197   C2   -1.029    0.227    1.063   Cg    55      1CA   0.345000
  1198   C3   -0.247   -1.039    0.547   Cg    55      1CA   0.247000
  1199   H3   -0.084   -1.716    1.388   H1    55      1CA   0.000000
  1200   C4    1.122   -0.698   -0.098   Cg    55      1CA   0.367000
  1201   H4    1.489   -1.577   -0.630   H1    55      1CA   0.000000
  1202   C5    1.023    0.473   -1.100   Cg    55      1CA   0.195000
  1203   H5    0.345    0.186   -1.905   H1    55      1CA   0.000000
  1204   C6    0.449    1.711   -0.391   Cg    55      1CA   0.437000
  1205  H6E    0.352    2.534   -1.100   H1    55      1CA   0.000000
  1206  H6A    1.107    2.039    0.416   H1    55      1CA   0.000000
  1207   O6   -0.891    1.395    0.160   Os    55      1CA  -0.620000
  1208   O5    2.326    0.755   -1.700   Oh    55      1CA  -0.709000
  1209  H5O    2.222    1.171   -2.563   Ho    55      1CA   0.415000
  1210   O4    2.094   -0.389    0.932   Oh    55      1CA  -0.720000
  1211  H4O    2.903   -0.106    0.489   Ho    55      1CA   0.394000
  1212   O3   -1.026   -1.785   -0.447   Oh    55      1CA  -0.655000
  1213  H3O   -0.696   -2.690   -0.506   Ho    55      1CA   0.406000
  1214   C1   -2.541   -0.051    1.366   Cg    55      1CA   0.386000
  1215  H12   -2.624   -0.882    2.068   H1    55      1CA   0.000000
  1216  H11   -2.998    0.823    1.832   H1    55      1CA   0.000000
  1217   O1   -3.298   -0.380    0.179   Os    55      1CA  -0.488000
  1218   C2   -1.487   -0.047    0.541   Cg    56      1CB   0.244000
  1219   O6   -1.331    1.218   -0.211   Os    56      1CB  -0.460000
  1220   C6    0.052    1.664   -0.502   Cg    56      1CB   0.365000
  1221  H6E    0.013    2.584   -1.086   H1    56      1CB   0.000000
  1222  H6A    0.570    1.879    0.434   H1    56      1CB   0.000000
  1223   C5    0.788    0.567   -1.292   Cg    56      1CB   0.195000
  1224   H5    0.289    0.460   -2.256   H1    56      1CB   0.000000
  1225   O5    2.164    0.971   -1.553   Oh    56      1CB  -0.684000
  1226  H5O    2.696    0.808   -0.765   Ho    56      1CB   0.415000
  1227   C4    0.746   -0.800   -0.566   Cg    56      1CB   0.344000
  1228   H4    1.163   -1.560   -1.229   H1    56      1CB   0.000000
  1229   O4    1.585   -0.758    0.626   Oh    56      1CB  -0.698000
  1230  H4O    2.000   -1.620    0.748   Ho    56      1CB   0.417000
  1231   C3   -0.699   -1.202   -0.169   Cg    56      1CB   0.317000
  1232   H3   -0.671   -2.075    0.485   H1    56      1CB   0.000000
  1233   O3   -1.377   -1.593   -1.393   Oh    56      1CB  -0.697000
  1234  H3O   -2.318   -1.430   -1.236   Ho    56      1CB   0.407000
  1235   C1   -1.080    0.138    2.039   Cg    56      1CB   0.297000
  1236  H12   -1.256   -0.787    2.591   H1    56      1CB   0.000000
  1237  H11   -0.022    0.378    2.125   H1    56      1CB   0.000000
  1238   O1   -1.825    1.206    2.669   Os    56      1CB  -0.462000
  1239   O1   -2.096    1.489   -0.357   Os    57      1DA  -0.388000
  1240   C1   -0.704    1.545   -0.635   Cg    57      1DA   0.398000
  1241   H1   -0.532    2.347   -1.353   H2    57      1DA   0.000000
  1242   C2   -0.214    0.196   -1.244   Cg    57      1DA   0.246000
  1243   H2   -0.877   -0.095   -2.060   H1    57      1DA   0.000000
  1244   C3   -0.211   -0.916   -0.167   Cg    57      1DA   0.184000
  1245   H3   -1.241   -1.067    0.160   H1    57      1DA   0.000000
  1246   C4    0.638   -0.501    1.056   Cg    57      1DA   0.351000
  1247   H4    1.684   -0.384    0.768   H1    57      1DA   0.000000
  1248   C5    0.107    0.820    1.651   Cg    57      1DA   0.275000
  1249  H5E    0.771    1.167    2.442   H1    57      1DA   0.000000
  1250  H5A   -0.879    0.658    2.091   H1    57      1DA   0.000000
  1251   O5   -0.007    1.884    0.614   Os    57      1DA  -0.487000
  1252   O4    0.541   -1.531    2.067   Oh    57      1DA  -0.711000
  1253  H4O    0.711   -2.368    1.615   Ho    57      1DA   0.422000
  1254   O3    0.254   -2.186   -0.714   Oh    57      1DA  -0.655000
  1255  H3O   -0.170   -2.357   -1.561   Ho    57      1DA   0.417000
  1256   O2    1.125    0.369   -1.795   Oh    57      1DA  -0.678000
  1257  H2O    1.102    0.928   -2.578   Ho    57      1DA   0.432000
  1258   O1    1.673    0.877    2.529   Os    58      1DB  -0.388000
  1259   C1    0.870    0.897    1.341   Cg    58      1DB   0.448000
  1260   H1    1.054    1.844    0.831   H2    58      1DB   0.000000
  1261   O5   -0.575    0.801    1.646   Os    58      1DB  -0.519000
  1262   C5   -1.471    0.863    0.470   Cg    58      1DB   0.275000
  1263  H5E   -2.503    0.739    0.799   H1    58      1DB   0.000000
  1264  H5A   -1.377    1.849    0.010   H1    58      1DB   0.000000
  1265   C4   -1.099   -0.241   -0.537   Cg    58      1DB   0.335000
  1266   H4   -1.403   -1.211   -0.142   H1    58      1DB   0.000000
  1267   O4   -1.825    0.029   -1.746   Oh    58      1DB  -0.709000
  1268  H4O   -1.628   -0.651   -2.395   Ho    58      1DB   0.436000
  1269   C3    0.411   -0.241   -0.854   Cg    58      1DB   0.201000
  1270   H3    0.659    0.665   -1.411   H1    58      1DB   0.000000
  1271   O3    0.737   -1.373   -1.681   Oh    58      1DB  -0.701000
  1272  H3O    0.222   -1.337   -2.490   Ho    58      1DB   0.432000
  1273   C2    1.280   -0.272    0.421   Cg    58      1DB   0.226000
  1274   H2    2.336   -0.193    0.158   H1    58      1DB   0.000000
  1275   O2    1.058   -1.517    1.123   Oh    58      1DB  -0.645000
  1276  H2O    1.582   -1.527    1.927   Ho    58      1DB   0.415000
  1277   O1   -0.208    2.068    1.622   Os    59      1EA  -0.388000
  1278   C1   -0.946    0.865    1.369   Cg    59      1EA   0.480000
  1279   H1   -1.881    0.928    1.929   H2    59      1EA   0.000000
  1280   C2   -0.130   -0.343    1.881   Cg    59      1EA   0.179000
  1281   H2    0.287   -0.121    2.866   H1    59      1EA   0.000000
  1282   C3    0.986   -0.821    0.932   Cg    59      1EA   0.328000
  1283   H3    1.360   -1.794    1.254   H1    59      1EA   0.000000
  1284   C4    0.498   -0.905   -0.530   Cg    59      1EA   0.261000
  1285   H4   -0.222   -1.721   -0.603   H1    59      1EA   0.000000
  1286   C5   -0.181    0.390   -1.017   Cg    59      1EA   0.374000
  1287   H5    0.547    1.204   -1.005   H1    59      1EA   0.000000
  1288   C6   -0.794    0.285   -2.420   Cg    59      1EA   0.259000
  1289  H62   -0.038   -0.018   -3.145   H1    59      1EA   0.000000
  1290  H61   -1.601   -0.449   -2.435   H1    59      1EA   0.000000
  1291   O6   -1.309    1.568   -2.800   Oh    59      1EA  -0.663000
  1292  H6O   -0.596    2.212   -2.800   Ho    59      1EA   0.406000
  1293   O5   -1.276    0.713   -0.068   Os    59      1EA  -0.587000
  1294   O4    1.611   -1.225   -1.385   Oh    59      1EA  -0.721000
  1295  H4O    2.271   -0.530   -1.324   Ho    59      1EA   0.415000
  1296   O3    2.063    0.131    1.040   Oh    59      1EA  -0.714000
  1297  H3O    2.363    0.173    1.951   Ho    59      1EA   0.420000
  1298   O2   -1.053   -1.433    2.041   Oh    59      1EA  -0.690000
  1299  H2O   -1.750   -1.177    2.649   Ho    59      1EA   0.447000
  1300   O1   -2.828   -0.949    1.087   Os    60      1EB  -0.388000
  1301   C1   -1.443   -0.669    1.030   Cg    60      1EB   0.488000
  1302   H1   -1.067   -0.567    2.048   H2    60      1EB   0.000000
  1303   O5   -1.309    0.618    0.337   Os    60      1EB  -0.532000
  1304   C5    0.105    1.075    0.123   Cg    60      1EB   0.257000
  1305   H5    0.562    1.244    1.100   H1    60      1EB   0.000000
  1306   C6    0.093    2.408   -0.649   Cg    60      1EB   0.278000
  1307  H62   -0.358    2.269   -1.633   H1    60      1EB   0.000000
  1308  H61    1.108    2.781   -0.787   H1    60      1EB   0.000000
  1309   O6   -0.668    3.390    0.078   Oh    60      1EB  -0.677000
  1310  H6O   -1.519    3.001    0.302   Ho    60      1EB   0.408000
  1311   C4    0.901   -0.023   -0.626   Cg    60      1EB   0.320000
  1312   H4    0.493   -0.122   -1.633   H1    60      1EB   0.000000
  1313   O4    2.302    0.358   -0.754   Oh    60      1EB  -0.724000
  1314  H4O    2.709   -0.120   -1.486   Ho    60      1EB   0.420000
  1315   C3    0.785   -1.394    0.097   Cg    60      1EB   0.315000
  1316   H3    1.307   -2.153   -0.488   H1    60      1EB   0.000000
  1317   O3    1.404   -1.333    1.411   Oh    60      1EB  -0.681000
  1318  H3O    2.287   -0.956    1.315   Ho    60      1EB   0.403000
  1319   C2   -0.687   -1.807    0.276   Cg    60      1EB   0.184000
  1320   H2   -0.745   -2.729    0.857   H1    60      1EB   0.000000
  1321   O2   -1.244   -2.068   -1.051   Oh    60      1EB  -0.697000
  1322  H2O   -2.187   -2.255   -0.953   Ho    60      1EB   0.432000
  1323   O1   -2.133    1.489   -0.630   Os    61      1FA  -0.388000
  1324   C1   -0.728    1.494   -0.902   Cg    61      1FA   0.399000
  1325   H1   -0.501    2.352   -1.535   H2    61      1FA   0.000000
  1326   C2   -0.217    0.191   -1.604   Cg    61      1FA   0.456000
  1327   H2    0.849    0.316   -1.799   H1    61      1FA   0.000000
  1328   C3   -0.419   -1.026   -0.666   Cg    61      1FA   0.228000
  1329   H3   -1.482   -1.137   -0.445   H1    61      1FA   0.000000
  1330   C4    0.339   -0.797    0.666   Cg    61      1FA   0.263000
  1331   H4    0.125   -1.626    1.342   H1    61      1FA   0.000000
  1332   C5   -0.098    0.529    1.348   Cg    61      1FA   0.187000
  1333   H5   -1.134    0.401    1.666   H1    61      1FA   0.000000
  1334   C6    0.709    0.917    2.590   Cg    61      1FA   0.065000
  1335  H63    0.696    0.121    3.334   Hc    61      1FA   0.000000
  1336  H62    0.297    1.810    3.063   Hc    61      1FA   0.000000
  1337  H61    1.752    1.129    2.350   Hc    61      1FA   0.000000
  1338   O5   -0.056    1.680    0.394   Os    61      1FA  -0.494000
  1339   O4    1.767   -0.786    0.406   Oh    61      1FA  -0.739000
  1340  H4O    1.976   -1.598   -0.073   Ho    61      1FA   0.447000
  1341   O3    0.037   -2.277   -1.273   Oh    61      1FA  -0.693000
  1342  H3O   -0.636   -2.585   -1.891   Ho    61      1FA   0.426000
  1343   O2   -0.862   -0.028   -2.900   Oh    61      1FA  -0.804000
  1344  H2O   -0.283   -0.571   -3.441   Ho    61      1FA   0.453000
  1345   O1   -2.745    0.317    1.376   Os    62      1FB  -0.388000
  1346   C1   -1.397    0.587    0.969   Cg    62      1FB   0.418000
  1347   H1   -1.097    1.554    1.376   H2    62      1FB   0.000000
  1348   O5   -1.301    0.649   -0.506   Os    62      1FB  -0.442000
  1349   C5    0.059    0.814   -1.069   Cg    62      1FB   0.106000
  1350   H5    0.492    1.728   -0.659   H1    62      1FB   0.000000
  1351   C6   -0.071    1.008   -2.582   Cg    62      1FB   0.092000
  1352  H63    0.907    1.135   -3.049   Hc    62      1FB   0.000000
  1353  H62   -0.558    0.159   -3.064   Hc    62      1FB   0.000000
  1354  H61   -0.659    1.897   -2.816   Hc    62      1FB   0.000000
  1355   C4    0.931   -0.377   -0.621   Cg    62      1FB   0.229000
  1356   H4    1.950   -0.250   -0.988   H1    62      1FB   0.000000
  1357   O4    0.379   -1.591   -1.179   Oh    62      1FB  -0.659000
  1358  H4O    0.370   -1.526   -2.137   Ho    62      1FB   0.423000
  1359   C3    0.933   -0.467    0.919   Cg    62      1FB   0.255000
  1360   H3    1.441    0.420    1.304   H1    62      1FB   0.000000
  1361   O3    1.690   -1.622    1.327   Oh    62      1FB  -0.676000
  1362  H3O    1.713   -1.666    2.286   Ho    62      1FB   0.427000
  1363   C2   -0.486   -0.533    1.518   Cg    62      1FB   0.346000
  1364   H2   -0.931   -1.510    1.317   H1    62      1FB   0.000000
  1365   O2   -0.373   -0.344    2.940   Oh    62      1FB  -0.765000
  1366  H2O   -1.246   -0.382    3.338   Ho    62      1FB   0.440000
  1367   O1   -0.167    0.135    2.573   Os    63      1GA  -0.388000
  1368   C1   -1.000   -0.464    1.591   Cg    63      1GA   0.509000
  1369   H1   -1.909   -0.824    2.072   H2    63      1GA   0.000000
  1370   C2   -0.284   -1.642    0.869   Cg    63      1GA   0.246000
  1371   H2   -1.022   -2.138    0.236   H1    63      1GA   0.000000
  1372   C3    0.866   -1.138   -0.028   Cg    63      1GA   0.286000
  1373   H3    1.675   -0.762    0.602   H1    63      1GA   0.000000
  1374   C4    0.403   -0.025   -0.998   Cg    63      1GA   0.254000
  1375   H4   -0.304   -0.442   -1.719   H1    63      1GA   0.000000
  1376   C5   -0.268    1.137   -0.237   Cg    63      1GA   0.283000
  1377   H5    0.485    1.613    0.393   H1    63      1GA   0.000000
  1378   C6   -0.857    2.206   -1.187   Cg    63      1GA   0.276000
  1379  H62   -0.144    2.457   -1.972   H1    63      1GA   0.000000
  1380  H61   -1.762    1.824   -1.663   H1    63      1GA   0.000000
  1381   O6   -1.174    3.415   -0.465   Oh    63      1GA  -0.682000
  1382  H6O   -0.371    3.918   -0.307   Ho    63      1GA   0.418000
  1383   O5   -1.352    0.597    0.648   Os    63      1GA  -0.574000
  1384   O4    1.556    0.484   -1.716   Oh    63      1GA  -0.710000
  1385  H4O    2.027   -0.279   -2.081   Ho    63      1GA   0.436000
  1386   O3    1.365   -2.255   -0.809   Oh    63      1GA  -0.699000
  1387  H3O    1.427   -3.017   -0.217   Ho    63      1GA   0.427000
  1388   O2    0.220   -2.631    1.825   Oh    63      1GA  -0.713000
  1389  H2O    0.592   -2.172    2.590   Ho    63      1GA   0.437000
  1390   O1   -2.744   -0.946    1.097   Os    64      1GB  -0.388000
  1391   C1   -1.373   -0.590    1.025   Cg    64      1GB   0.384000
  1392   H1   -0.978   -0.478    2.035   H2    64      1GB   0.000000
  1393   O5   -1.312    0.704    0.337   Os    64      1GB  -0.471000
  1394   C5    0.064    1.240    0.106   Cg    64      1GB   0.225000
  1395   H5    0.548    1.373    1.077   H1    64      1GB   0.000000
  1396   C6   -0.034    2.614   -0.586   Cg    64      1GB   0.282000
  1397  H62   -0.503    2.509   -1.565   H1    64      1GB   0.000000
  1398  H61    0.957    3.046   -0.724   H1    64      1GB   0.000000
  1399   O6   -0.824    3.510    0.218   Oh    64      1GB  -0.688000
  1400  H6O   -1.664    3.082    0.409   Ho    64      1GB   0.424000
  1401   C4    0.868    0.217   -0.723   Cg    64      1GB   0.276000
  1402   H4    0.439    0.147   -1.725   H1    64      1GB   0.000000
  1403   O4    2.237    0.674   -0.833   Oh    64      1GB  -0.714000
  1404  H4O    2.747   -0.036   -1.245   Ho    64      1GB   0.440000
  1405   C3    0.852   -1.181   -0.059   Cg    64      1GB   0.284000
  1406   H3    1.411   -1.138    0.878   H1    64      1GB   0.000000
  1407   O3    1.508   -2.129   -0.945   Oh    64      1GB  -0.709000
  1408  H3O    1.417   -3.006   -0.550   Ho    64      1GB   0.432000
  1409   C2   -0.584   -1.670    0.234   Cg    64      1GB   0.310000
  1410   H2   -1.098   -1.873   -0.708   H1    64      1GB   0.000000
  1411   O2   -0.517   -2.905    1.005   Oh    64      1GB  -0.718000
  1412  H2O   -1.418   -3.161    1.240   Ho    64      1GB   0.437000
  1413   O1   -2.042    1.720   -0.944   Os    65      1HA  -0.388000
  1414   C1   -0.632    1.607   -1.111   Cg    65      1HA   0.394000
  1415   H1   -0.291    2.452   -1.710   H2    65      1HA   0.000000
  1416   C2   -0.272    0.284   -1.842   Cg    65      1HA   0.248000
  1417   H2   -0.898    0.174   -2.728   H1    65      1HA   0.000000
  1418   C3   -0.487   -0.929   -0.909   Cg    65      1HA   0.236000
  1419   H3   -1.557   -1.024   -0.710   H1    65      1HA   0.000000
  1420   C4    0.259   -0.778    0.435   Cg    65      1HA   0.187000
  1421   H4    1.336   -0.774    0.259   H1    65      1HA   0.000000
  1422   C5   -0.162    0.536    1.139   Cg    65      1HA   0.279000
  1423   H5   -1.214    0.464    1.423   H1    65      1HA   0.000000
  1424   C6    0.655    0.857    2.392   Cg    65      1HA   0.023000
  1425  H63    0.548    0.079    3.148   Hc    65      1HA   0.000000
  1426  H62    0.331    1.794    2.848   Hc    65      1HA   0.000000
  1427  H61    1.718    0.951    2.166   Hc    65      1HA   0.000000
  1428   O5   -0.010    1.695    0.221   Os    65      1HA  -0.461000
  1429   O4   -0.074   -1.912    1.285   Oh    65      1HA  -0.644000
  1430  H4O    0.539   -1.964    2.026   Ho    65      1HA   0.405000
  1431   O3   -0.052   -2.143   -1.576   Oh    65      1HA  -0.649000
  1432  H3O   -0.151   -2.862   -0.940   Ho    65      1HA   0.425000
  1433   O2    1.117    0.329   -2.276   Oh    65      1HA  -0.670000
  1434  H2O    1.339   -0.555   -2.593   Ho    65      1HA   0.421000
  1435   O1   -3.292   -0.485   -0.331   Os    66      1HB  -0.388000
  1436   C1   -1.869   -0.539   -0.510   Cg    66      1HB   0.381000
  1437   H1   -1.658   -1.286   -1.275   H2    66      1HB   0.000000
  1438   O5   -1.168   -0.927    0.733   Os    66      1HB  -0.427000
  1439   C5    0.306   -1.059    0.628   Cg    66      1HB   0.172000
  1440   H5    0.521   -1.868   -0.073   H1    66      1HB   0.000000
  1441  C6M    0.820   -1.464    2.011   Cg    66      1HB   0.039000
  1442  H1M    0.354   -2.389    2.351   Hc    66      1HB   0.000000
  1443  H2M    0.614   -0.697    2.759   Hc    66      1HB   0.000000
  1444  H3M    1.898   -1.632    2.001   Hc    66      1HB   0.000000
  1445   C4    0.910    0.259    0.087   Cg    66      1HB   0.388000
  1446   H4    0.883    1.024    0.865   H1    66      1HB   0.000000
  1447   O4    2.277   -0.004   -0.273   Oh    66      1HB  -0.728000
  1448  H4O    2.756   -0.315    0.499   Ho    66      1HB   0.432000
  1449   C3    0.172    0.763   -1.171   Cg    66      1HB   0.182000
  1450   H3    0.373    0.080   -2.000   H1    66      1HB   0.000000
  1451   O3    0.668    2.064   -1.539   Oh    66      1HB  -0.665000
  1452  H3O    1.615    2.014   -1.689   Ho    66      1HB   0.418000
  1453   C2   -1.355    0.838   -0.975   Cg    66      1HB   0.243000
  1454   H2   -1.840    1.127   -1.909   H1    66      1HB   0.000000
  1455   O2   -1.660    1.820    0.042   Oh    66      1HB  -0.673000
  1456  H2O   -1.325    2.677   -0.232   Ho    66      1HB   0.432000
  1457   C2   -0.965    0.324    1.131   Cg    67      1JA   0.114000
  1458   C3   -0.227   -0.902    0.508   Cg    67      1JA   0.271000
  1459   H3   -0.067   -1.660    1.277   H1    67      1JA   0.000000
  1460   C4    1.144   -0.485   -0.084   Cg    67      1JA   0.281000
  1461   H4    1.789   -0.143    0.727   H1    67      1JA   0.000000
  1462   C5    0.990    0.657   -1.116   Cg    67      1JA   0.273000
  1463   H5    0.412    0.308   -1.973   H1    67      1JA   0.000000
  1464   C6    0.279    1.867   -0.480   Cg    67      1JA   0.368000
  1465  H6E    0.058    2.613   -1.243   H1    67      1JA   0.000000
  1466  H6A    0.929    2.332    0.263   H1    67      1JA   0.000000
  1467   O6   -0.991    1.465    0.185   Os    67      1JA  -0.504000
  1468   O5    2.301    1.077   -1.578   Oh    67      1JA  -0.699000
  1469  H5O    2.753    0.305   -1.940   Ho    67      1JA   0.419000
  1470   O4    1.782   -1.646   -0.698   Oh    67      1JA  -0.672000
  1471  H4O    2.212   -2.174   -0.016   Ho    67      1JA   0.413000
  1472   O3   -1.038   -1.496   -0.548   Oh    67      1JA  -0.654000
  1473  H3O   -0.470   -2.093   -1.053   Ho    67      1JA   0.425000
  1474   C1   -2.409   -0.005    1.628   Cg    67      1JA   0.410000
  1475  H12   -2.376   -0.840    2.330   H1    67      1JA   0.000000
  1476  H11   -2.838    0.853    2.146   H1    67      1JA   0.000000
  1477   O1   -3.269   -0.359    0.533   Os    67      1JA  -0.445000
  1478   C2   -1.536    0.123    0.783   Cg    68      1JB   0.413000
  1479   O6   -1.332    1.369    0.004   Os    68      1JB  -0.551000
  1480   C6    0.060    1.696   -0.395   Cg    68      1JB   0.292000
  1481  H6E    0.049    2.582   -1.030   H1    68      1JB   0.000000
  1482  H6A    0.635    1.933    0.501   H1    68      1JB   0.000000
  1483   C5    0.714    0.514   -1.149   Cg    68      1JB   0.374000
  1484   H5    0.263    0.430   -2.139   H1    68      1JB   0.000000
  1485   O5    2.137    0.772   -1.305   Oh    68      1JB  -0.729000
  1486  H5O    2.545    0.984   -0.460   Ho    68      1JB   0.426000
  1487   C4    0.541   -0.825   -0.386   Cg    68      1JB   0.155000
  1488   H4    1.125   -0.774    0.533   H1    68      1JB   0.000000
  1489   O4    1.066   -1.941   -1.165   Oh    68      1JB  -0.684000
  1490  H4O    1.928   -1.695   -1.531   Ho    68      1JB   0.438000
  1491   C3   -0.940   -1.091   -0.010   Cg    68      1JB   0.363000
  1492   H3   -1.006   -1.996    0.595   H1    68      1JB   0.000000
  1493   O3   -1.671   -1.317   -1.255   Oh    68      1JB  -0.725000
  1494  H3O   -1.171   -1.979   -1.752   Ho    68      1JB   0.432000
  1495   C1   -0.948    0.220    2.231   Cg    68      1JB   0.280000
  1496  H12   -1.322   -0.606    2.838   H1    68      1JB   0.000000
  1497  H11    0.137    0.139    2.206   H1    68      1JB   0.000000
  1498   O1   -1.278    1.464    2.887   Os    68      1JB  -0.484000
  1499   O1   -0.355    2.059    1.504   Os    69      1KA  -0.388000
  1500   C1   -1.028    0.801    1.316   Cg    69      1KA   0.473000
  1501   H1   -1.961    0.826    1.878   H2    69      1KA   0.000000
  1502   C2   -0.168   -0.377    1.823   Cg    69      1KA   0.281000
  1503   H2   -0.818   -1.253    1.824   H1    69      1KA   0.000000
  1504   C3    1.051   -0.729    0.943   Cg    69      1KA   0.354000
  1505   H3    1.502   -1.660    1.289   H1    69      1KA   0.000000
  1506   C4    0.650   -0.853   -0.540   Cg    69      1KA   0.196000
  1507   H4    1.545   -0.940   -1.157   H1    69      1KA   0.000000
  1508   C5   -0.204    0.339   -1.039   Cg    69      1KA   0.301000
  1509   H5    0.431    1.226   -1.019   H1    69      1KA   0.000000
  1510   C6   -0.749    0.190   -2.467   Cg    69      1KA   0.287000
  1511  H62    0.062   -0.042   -3.157   H1    69      1KA   0.000000
  1512  H61   -1.489   -0.609   -2.519   H1    69      1KA   0.000000
  1513   O6   -1.357    1.427   -2.863   Oh    69      1KA  -0.691000
  1514  H6O   -0.704    2.130   -2.830   Ho    69      1KA   0.422000
  1515   O5   -1.346    0.568   -0.111   Os    69      1KA  -0.540000
  1516   O4   -0.105   -2.071   -0.680   Oh    69      1KA  -0.712000
  1517  H4O   -0.352   -2.191   -1.600   Ho    69      1KA   0.420000
  1518   O3    2.044    0.310    1.030   Oh    69      1KA  -0.744000
  1519  H3O    2.328    0.405    1.942   Ho    69      1KA   0.436000
  1520   O2    0.231   -0.167    3.190   Oh    69      1KA  -0.716000
  1521  H2O    0.792    0.611    3.242   Ho    69      1KA   0.427000
  1522   O1   -2.694   -0.809    1.108   Os    70      1KB  -0.388000
  1523   C1   -1.310   -0.518    1.032   Cg    70      1KB   0.449000
  1524   H1   -0.916   -0.368    2.038   H2    70      1KB   0.000000
  1525   O5   -1.218    0.734    0.277   Os    70      1KB  -0.514000
  1526   C5    0.177    1.192   -0.024   Cg    70      1KB   0.303000
  1527   H5    0.679    1.388    0.925   H1    70      1KB   0.000000
  1528   C6    0.123    2.520   -0.806   Cg    70      1KB   0.259000
  1529  H62   -0.444    2.398   -1.729   H1    70      1KB   0.000000
  1530  H61    1.131    2.844   -1.064   H1    70      1KB   0.000000
  1531   O6   -0.502    3.542   -0.006   Oh    70      1KB  -0.670000
  1532  H6O   -1.382    3.239    0.238   Ho    70      1KB   0.416000
  1533   C4    0.976    0.084   -0.764   Cg    70      1KB   0.217000
  1534   H4    2.018    0.395   -0.845   H1    70      1KB   0.000000
  1535   O4    0.467   -0.112   -2.113   Oh    70      1KB  -0.700000
  1536  H4O    1.110   -0.593   -2.647   Ho    70      1KB   0.425000
  1537   C3    0.899   -1.259   -0.003   Cg    70      1KB   0.253000
  1538   H3    1.376   -2.039   -0.598   H1    70      1KB   0.000000
  1539   O3    1.648   -1.118    1.232   Oh    70      1KB  -0.710000
  1540  H3O    1.532   -1.938    1.734   Ho    70      1KB   0.442000
  1541   C2   -0.561   -1.671    0.299   Cg    70      1KB   0.308000
  1542   H2   -1.066   -1.874   -0.646   H1    70      1KB   0.000000
  1543   O2   -0.564   -2.904    1.084   Oh    70      1KB  -0.710000
  1544  H2O   -1.481   -3.134    1.278   Ho    70      1KB   0.426000
  1545   O1   -0.414    2.124    1.482   Os    71      1LA  -0.388000
  1546   C1   -1.066    0.857    1.273   Cg    71      1LA   0.465000
  1547   H1   -2.017    0.869    1.805   H2    71      1LA   0.000000
  1548   C2   -0.202   -0.309    1.810   Cg    71      1LA   0.339000
  1549   H2   -0.819   -1.208    1.822   H1    71      1LA   0.000000
  1550   C3    1.043   -0.567    0.939   Cg    71      1LA   0.253000
  1551   H3    1.721    0.284    1.020   H1    71      1LA   0.000000
  1552   C4    0.671   -0.760   -0.547   Cg    71      1LA   0.204000
  1553   H4    1.578   -0.861   -1.144   H1    71      1LA   0.000000
  1554   C5   -0.155    0.441   -1.056   Cg    71      1LA   0.216000
  1555   H5    0.478    1.328   -0.987   H1    71      1LA   0.000000
  1556   C6   -0.640    0.325   -2.508   Cg    71      1LA   0.308000
  1557  H62    0.200    0.111   -3.169   H1    71      1LA   0.000000
  1558  H61   -1.374   -0.476   -2.610   H1    71      1LA   0.000000
  1559   O6   -1.236    1.569   -2.898   Oh    71      1LA  -0.684000
  1560  H6O   -0.587    2.273   -2.821   Ho    71      1LA   0.418000
  1561   O5   -1.335    0.638   -0.168   Os    71      1LA  -0.527000
  1562   O4   -0.124   -1.957   -0.701   Oh    71      1LA  -0.673000
  1563  H4O   -0.355   -2.071   -1.626   Ho    71      1LA   0.436000
  1564   O3    1.738   -1.738    1.408   Oh    71      1LA  -0.701000
  1565  H3O    1.980   -1.619    2.329   Ho    71      1LA   0.433000
  1566   O2    0.194   -0.026    3.165   Oh    71      1LA  -0.724000
  1567  H2O    0.722    0.776    3.183   Ho    71      1LA   0.431000
  1568   O1   -2.668   -0.897    1.166   Os    72      1LB  -0.388000
  1569   C1   -1.290   -0.545    1.089   Cg    72      1LB   0.374000
  1570   H1   -0.897   -0.437    2.101   H2    72      1LB   0.000000
  1571   O5   -1.213    0.756    0.411   Os    72      1LB  -0.402000
  1572   C5    0.163    1.265    0.124   Cg    72      1LB   0.140000
  1573   H5    0.679    1.400    1.077   H1    72      1LB   0.000000
  1574   C6    0.077    2.636   -0.569   Cg    72      1LB   0.319000
  1575  H62   -0.515    2.573   -1.484   H1    72      1LB   0.000000
  1576  H61    1.074    2.994   -0.826   H1    72      1LB   0.000000
  1577   O6   -0.539    3.576    0.327   Oh    72      1LB  -0.693000
  1578  H6O   -1.408    3.236    0.558   Ho    72      1LB   0.419000
  1579   C4    0.956    0.220   -0.693   Cg    72      1LB   0.203000
  1580   H4    1.988    0.556   -0.803   H1    72      1LB   0.000000
  1581   O4    0.373    0.091   -2.014   Oh    72      1LB  -0.664000
  1582  H4O    0.821   -0.646   -2.452   Ho    72      1LB   0.437000
  1583   C3    0.938   -1.152    0.019   Cg    72      1LB   0.259000
  1584   H3    1.474   -1.050    0.965   H1    72      1LB   0.000000
  1585   O3    1.658   -2.120   -0.794   Oh    72      1LB  -0.694000
  1586  H3O    1.590   -2.978   -0.352   Ho    72      1LB   0.433000
  1587   C2   -0.499   -1.641    0.313   Cg    72      1LB   0.357000
  1588   H2   -1.011   -1.867   -0.624   H1    72      1LB   0.000000
  1589   O2   -0.425   -2.858    1.114   Oh    72      1LB  -0.726000
  1590  H2O   -1.326   -3.112    1.347   Ho    72      1LB   0.432000
  1591   O1   -0.307    0.091    2.738   Os    73      1MA  -0.388000
  1592   C1   -1.094   -0.404    1.663   Cg    73      1MA   0.433000
  1593   H1   -2.059   -0.721    2.059   H2    73      1MA   0.000000
  1594   C2   -0.389   -1.610    0.982   Cg    73      1MA   0.245000
  1595   H2   -0.084   -2.329    1.744   H1    73      1MA   0.000000
  1596   C3    0.858   -1.139    0.200   Cg    73      1MA   0.252000
  1597   H3    1.585   -0.744    0.913   H1    73      1MA   0.000000
  1598   C4    0.506   -0.026   -0.818   Cg    73      1MA   0.326000
  1599   H4   -0.165   -0.421   -1.582   H1    73      1MA   0.000000
  1600   C5   -0.156    1.175   -0.104   Cg    73      1MA   0.276000
  1601   H5    0.583    1.627    0.560   H1    73      1MA   0.000000
  1602   C6   -0.643    2.248   -1.101   Cg    73      1MA   0.266000
  1603  H62    0.131    2.467   -1.837   H1    73      1MA   0.000000
  1604  H61   -1.524    1.891   -1.635   H1    73      1MA   0.000000
  1605   O6   -0.968    3.478   -0.417   Oh    73      1MA  -0.688000
  1606  H6O   -0.163    3.916   -0.132   Ho    73      1MA   0.422000
  1607   O5   -1.309    0.713    0.732   Os    73      1MA  -0.507000
  1608   O4    1.730    0.425   -1.457   Oh    73      1MA  -0.733000
  1609  H4O    2.177   -0.357   -1.805   Ho    73      1MA   0.438000
  1610   O3    1.475   -2.281   -0.471   Oh    73      1MA  -0.696000
  1611  H3O    1.942   -2.824    0.174   Ho    73      1MA   0.431000
  1612   O2   -1.314   -2.282    0.075   Oh    73      1MA  -0.717000
  1613  H2O   -0.812   -2.891   -0.481   Ho    73      1MA   0.446000
  1614   O1   -2.755   -0.950    1.381   Os    74      1MB  -0.388000
  1615   C1   -1.377   -0.650    1.186   Cg    74      1MB   0.314000
  1616   H1   -0.895   -0.607    2.165   H2    74      1MB   0.000000
  1617   O5   -1.268    0.671    0.549   Os    74      1MB  -0.393000
  1618   C5    0.121    1.129    0.227   Cg    74      1MB   0.206000
  1619   H5    0.644    1.296    1.170   H1    74      1MB   0.000000
  1620   C6    0.041    2.465   -0.534   Cg    74      1MB   0.273000
  1621  H62   -0.481    2.329   -1.482   H1    74      1MB   0.000000
  1622  H61    1.041    2.846   -0.744   H1    74      1MB   0.000000
  1623   O6   -0.668    3.436    0.256   Oh    74      1MB  -0.680000
  1624  H6O   -1.531    3.075    0.479   Ho    74      1MB   0.419000
  1625   C4    0.884    0.049   -0.581   Cg    74      1MB   0.349000
  1626   H4    0.475   -0.015   -1.590   H1    74      1MB   0.000000
  1627   O4    2.278    0.446   -0.671   Oh    74      1MB  -0.746000
  1628  H4O    2.680   -0.021   -1.411   Ho    74      1MB   0.443000
  1629   C3    0.779   -1.330    0.124   Cg    74      1MB   0.263000
  1630   H3    1.228   -1.249    1.116   H1    74      1MB   0.000000
  1631   O3    1.516   -2.366   -0.589   Oh    74      1MB  -0.692000
  1632  H3O    2.448   -2.316   -0.358   Ho    74      1MB   0.430000
  1633   C2   -0.702   -1.738    0.305   Cg    74      1MB   0.241000
  1634   H2   -0.766   -2.708    0.801   H1    74      1MB   0.000000
  1635   O2   -1.379   -1.817   -0.985   Oh    74      1MB  -0.664000
  1636  H2O   -2.314   -1.975   -0.813   Ho    74      1MB   0.431000
  1637   O1   -0.350    2.029    1.590   Os    75      1NA  -0.388000
  1638   C1   -1.120    0.838    1.352   Cg    75      1NA   0.478000
  1639   H1   -2.066    0.932    1.884   H2    75      1NA   0.000000
  1640   C2   -0.383   -0.423    1.856   Cg    75      1NA   0.228000
  1641   H2   -1.100   -1.244    1.805   H1    75      1NA   0.000000
  1642   C3    0.838   -0.843    1.016   Cg    75      1NA   0.330000
  1643   H3    1.221   -1.802    1.370   H1    75      1NA   0.000000
  1644   C4    0.404   -0.959   -0.460   Cg    75      1NA   0.167000
  1645   H4   -0.292   -1.795   -0.542   H1    75      1NA   0.000000
  1646   C5   -0.289    0.310   -1.004   Cg    75      1NA   0.404000
  1647   H5    0.429    1.132   -1.013   H1    75      1NA   0.000000
  1648   C6   -0.873    0.139   -2.413   Cg    75      1NA   0.280000
  1649  H62   -0.100   -0.179   -3.111   H1    75      1NA   0.000000
  1650  H61   -1.667   -0.609   -2.413   H1    75      1NA   0.000000
  1651   O6   -1.404    1.396   -2.854   Oh    75      1NA  -0.663000
  1652  H6O   -0.702    2.052   -2.870   Ho    75      1NA   0.396000
  1653   O5   -1.410    0.667   -0.090   Os    75      1NA  -0.611000
  1654   O4    1.554   -1.266   -1.268   Oh    75      1NA  -0.733000
  1655  H4O    2.182   -0.542   -1.220   Ho    75      1NA   0.444000
  1656   O3    1.880    0.151    1.144   Oh    75      1NA  -0.714000
  1657  H3O    2.658   -0.139    0.663   Ho    75      1NA   0.441000
  1658   O2   -0.023   -0.279    3.242   Oh    75      1NA  -0.668000
  1659  H2O    0.612    0.435    3.334   Ho    75      1NA   0.415000
  1660   O1   -2.759   -0.883    1.016   Os    76      1NB  -0.388000
  1661   C1   -1.377   -0.581    0.936   Cg    76      1NB   0.422000
  1662   H1   -0.976   -0.459    1.945   H2    76      1NB   0.000000
  1663   O5   -1.284    0.698    0.218   Os    76      1NB  -0.507000
  1664   C5    0.104    1.165   -0.107   Cg    76      1NB   0.198000
  1665   H5    0.642    1.327    0.828   H1    76      1NB   0.000000
  1666   C6    0.032    2.508   -0.861   Cg    76      1NB   0.313000
  1667  H62   -0.497    2.384   -1.806   H1    76      1NB   0.000000
  1668  H61    1.033    2.885   -1.071   H1    76      1NB   0.000000
  1669   O6   -0.668    3.468   -0.051   Oh    76      1NB  -0.689000
  1670  H6O   -1.470    3.047    0.273   Ho    76      1NB   0.418000
  1671   C4    0.817    0.060   -0.921   Cg    76      1NB   0.286000
  1672   H4    0.288   -0.074   -1.866   H1    76      1NB   0.000000
  1673   O4    2.177    0.448   -1.227   Oh    76      1NB  -0.707000
  1674  H4O    2.731    0.220   -0.469   Ho    76      1NB   0.430000
  1675   C3    0.820   -1.285   -0.159   Cg    76      1NB   0.234000
  1676   H3    1.294   -2.054   -0.772   H1    76      1NB   0.000000
  1677   O3    1.578   -1.148    1.079   Oh    76      1NB  -0.615000
  1678  H3O    1.416   -1.940    1.609   Ho    76      1NB   0.389000
  1679   C2   -0.629   -1.709    0.165   Cg    76      1NB   0.301000
  1680   H2   -1.149   -1.898   -0.778   H1    76      1NB   0.000000
  1681   O2   -0.606   -2.956    0.921   Oh    76      1NB  -0.703000
  1682  H2O   -1.517   -3.221    1.098   Ho    76      1NB   0.424000
  1683   O1   -0.000    0.365    2.597   Os    77      1OA  -0.388000
  1684   C1   -0.866   -0.161    1.585   Cg    77      1OA   0.305000
  1685   H1   -1.787   -0.501    2.058   H2    77      1OA   0.000000
  1686   C2   -0.213   -1.354    0.814   Cg    77      1OA   0.413000
  1687   H2   -0.977   -1.846    0.210   H1    77      1OA   0.000000
  1688   C3    0.928   -0.859   -0.108   Cg    77      1OA   0.251000
  1689   H3    1.701   -0.408    0.519   H1    77      1OA   0.000000
  1690   C4    0.402    0.231   -1.078   Cg    77      1OA   0.267000
  1691   H4    1.210    0.552   -1.736   H1    77      1OA   0.000000
  1692   C5   -0.118    1.437   -0.273   Cg    77      1OA   0.054000
  1693   H5    0.705    1.849    0.315   H1    77      1OA   0.000000
  1694   C6   -0.544    2.521   -1.320    C    77      1OA   0.896000
  1695  O6A    0.245    3.479   -1.485   O2    77      1OA  -0.822000
  1696  O6B   -1.587    2.302   -1.983   O2    77      1OA  -0.822000
  1697   O5   -1.186    0.964    0.692   Os    77      1OA  -0.424000
  1698   O4   -0.700   -0.262   -1.891   Oh    77      1OA  -0.704000
  1699  H4O   -1.227    0.522   -2.155   Ho    77      1OA   0.429000
  1700   O3    1.560   -1.963   -0.823   Oh    77      1OA  -0.725000
  1701  H3O    1.535   -2.732   -0.243   Ho    77      1OA   0.416000
  1702   O2    0.301   -2.328    1.778   Oh    77      1OA  -0.771000
  1703  H2O    0.618   -1.808    2.528   Ho    77      1OA   0.431000
  1704   O1   -2.805   -0.577    1.249   Os    78      1OB  -0.388000
  1705   C1   -1.416   -0.288    1.155   Cg    78      1OB   0.301000
  1706   H1   -1.006   -0.190    2.161   H2    78      1OB   0.000000
  1707   O5   -1.328    1.010    0.487   Os    78      1OB  -0.414000
  1708   C5    0.055    1.492    0.138   Cg    78      1OB   0.049000
  1709   H5    0.606    1.556    1.078   H1    78      1OB   0.000000
  1710   C6    0.211    2.918   -0.510    C    78      1OB   0.838000
  1711  O6B    1.373    3.247   -0.855   O2    78      1OB  -0.794000
  1712  O6A   -0.788    3.675   -0.549   O2    78      1OB  -0.794000
  1713   C4    0.758    0.433   -0.728   Cg    78      1OB   0.260000
  1714   H4    1.789    0.733   -0.917   H1    78      1OB   0.000000
  1715   O4    0.073    0.311   -2.000   Oh    78      1OB  -0.661000
  1716  H4O    0.473   -0.423   -2.475   Ho    78      1OB   0.402000
  1717   C3    0.770   -0.942   -0.016   Cg    78      1OB   0.259000
  1718   H3    1.354   -0.843    0.901   H1    78      1OB   0.000000
  1719   O3    1.459   -1.909   -0.875   Oh    78      1OB  -0.708000
  1720  H3O    2.408   -1.786   -0.788   Ho    78      1OB   0.404000
  1721   C2   -0.662   -1.403    0.368   Cg    78      1OB   0.383000
  1722   H2   -1.219   -1.653   -0.536   H1    78      1OB   0.000000
  1723   O2   -0.601   -2.583    1.226   Oh    78      1OB  -0.732000
  1724  H2O   -1.507   -2.778    1.487   Ho    78      1OB   0.401000
  1725   C2   -1.078    0.750    0.429   Cg    79      1PA   0.417000
  1726   C3   -0.199   -0.440    0.918   Cg    79      1PA   0.150000
  1727   H3   -0.744   -1.357    0.693   H1    79      1PA   0.000000
  1728   C4    1.172   -0.575    0.223   Cg    79      1PA   0.394000
  1729   H4    1.658   -1.502    0.532   H1    79      1PA   0.000000
  1730   C5    0.950   -0.578   -1.302   Cg    79      1PA   0.153000
  1731   H5    0.394   -1.479   -1.567   H1    79      1PA   0.000000
  1732   C6    0.159    0.641   -1.799   Cg    79      1PA   0.393000
  1733  H6E   -0.050    0.548   -2.865   H1    79      1PA   0.000000
  1734  H6A    0.725    1.560   -1.641   H1    79      1PA   0.000000
  1735   O6   -1.122    0.723   -1.059   Os    79      1PA  -0.598000
  1736   O5    2.213   -0.624   -1.985   Oh    79      1PA  -0.693000
  1737  H5O    2.705   -1.397   -1.697   Ho    79      1PA   0.428000
  1738   O4    2.017    0.538    0.590   Oh    79      1PA  -0.702000
  1739  H4O    2.142    0.544    1.542   Ho    79      1PA   0.432000
  1740   O3   -0.028   -0.409    2.349   Oh    79      1PA  -0.665000
  1741  H3O    0.443    0.390    2.597   Ho    79      1PA   0.409000
  1742   C1   -2.530    0.739    0.942   Cg    79      1PA   0.327000
  1743  H12   -2.552    0.772    2.033   H1    79      1PA   0.000000
  1744  H11   -3.073    1.608    0.567   H1    79      1PA   0.000000
  1745   O1   -3.203   -0.450    0.501   Os    79      1PA  -0.445000
  1746   C2   -1.475    0.061    0.458   Cg    80      1PB   0.407000
  1747   O6   -1.306    1.314   -0.308   Os    80      1PB  -0.540000
  1748   C6    0.080    1.731   -0.630   Cg    80      1PB   0.364000
  1749  H6E    0.048    2.655   -1.206   H1    80      1PB   0.000000
  1750  H6A    0.628    1.925    0.293   H1    80      1PB   0.000000
  1751   C5    0.760    0.619   -1.451   Cg    80      1PB   0.188000
  1752   H5    0.223    0.519   -2.395   H1    80      1PB   0.000000
  1753   O5    2.135    0.977   -1.759   Oh    80      1PB  -0.705000
  1754  H5O    2.694    0.710   -1.016   Ho    80      1PB   0.433000
  1755   C4    0.705   -0.736   -0.708   Cg    80      1PB   0.328000
  1756   H4    1.092   -1.518   -1.362   H1    80      1PB   0.000000
  1757   O4    1.547   -0.677    0.475   Oh    80      1PB  -0.698000
  1758  H4O    1.457   -1.535    0.911   Ho    80      1PB   0.427000
  1759   C3   -0.741   -1.098   -0.289   Cg    80      1PB   0.180000
  1760   H3   -1.284   -1.298   -1.215   H1    80      1PB   0.000000
  1761   O3   -0.745   -2.341    0.483   Oh    80      1PB  -0.681000
  1762  H3O   -1.659   -2.647    0.560   Ho    80      1PB   0.422000
  1763   C1   -1.078    0.239    1.969   Cg    80      1PB   0.379000
  1764  H12   -1.306   -0.671    2.525   H1    80      1PB   0.000000
  1765  H11   -0.009    0.422    2.061   H1    80      1PB   0.000000
  1766   O1   -1.768    1.349    2.602   Os    80      1PB  -0.504000
  1767   O1   -1.975    1.559   -0.790   Os    81      1QA  -0.388000
  1768   C1   -0.588    1.510   -1.113   Cg    81      1QA   0.465000
  1769   H1   -0.352    2.356   -1.759   H1    81      1QA   0.000000
  1770   C2   -0.201    0.182   -1.827   Cg    81      1QA   0.281000
  1771   H2    0.840    0.266   -2.142   H1    81      1QA   0.000000
  1772   C3   -0.321   -1.019   -0.855   Cg    81      1QA   0.312000
  1773   H3   -1.375   -1.200   -0.634   H1    81      1QA   0.000000
  1774   C4    0.451   -0.779    0.468   Cg    81      1QA   0.208000
  1775   H4    1.522   -0.765    0.259   H1    81      1QA   0.000000
  1776   C5    0.048    0.557    1.134   Cg    81      1QA   0.234000
  1777   H5   -0.987    0.486    1.474   H1    81      1QA   0.000000
  1778   C6    0.921    0.946    2.331   Cg    81      1QA   0.060000
  1779  H63    1.971    1.040    2.051   Hc    81      1QA   0.000000
  1780  H62    0.859    0.204    3.129   Hc    81      1QA   0.000000
  1781  H61    0.607    1.900    2.756   Hc    81      1QA   0.000000
  1782   O5    0.141    1.667    0.150   Os    81      1QA  -0.559000
  1783   O4    0.169   -1.870    1.391   Oh    81      1QA  -0.664000
  1784  H4O    0.840   -1.905    2.081   Ho    81      1QA   0.403000
  1785   O3    0.236   -2.212   -1.466   Oh    81      1QA  -0.697000
  1786  H3O    0.161   -2.927   -0.826   Ho    81      1QA   0.424000
  1787   O2   -1.017    0.005   -3.029   Oh    81      1QA  -0.695000
  1788  H2O   -1.948   -0.001   -2.785   Ho    81      1QA   0.422000
  1789   O1   -2.741   -0.639    1.351   Os    82      1QB  -0.388000
  1790   C1   -1.371   -0.341    1.168   Cg    82      1QB   0.391000
  1791   H1   -0.903   -0.165    2.138   H1    82      1QB   0.000000
  1792   O5   -1.344    0.890    0.382   Os    82      1QB  -0.535000
  1793   C5    0.010    1.393    0.032   Cg    82      1QB   0.271000
  1794   H5    0.546    1.608    0.959   H1    82      1QB   0.000000
  1795   C6   -0.179    2.703   -0.735   Cg    82      1QB   0.048000
  1796  H63   -0.718    2.549   -1.671   Hc    82      1QB   0.000000
  1797  H62    0.779    3.165   -0.979   Hc    82      1QB   0.000000
  1798  H61   -0.744    3.428   -0.147   Hc    82      1QB   0.000000
  1799   C4    0.773    0.303   -0.758   Cg    82      1QB   0.250000
  1800   H4    0.308    0.176   -1.738   H1    82      1QB   0.000000
  1801   O4    2.146    0.732   -0.945   Oh    82      1QB  -0.713000
  1802  H4O    2.626    0.010   -1.370   Ho    82      1QB   0.421000
  1803   C3    0.762   -1.052   -0.008   Cg    82      1QB   0.300000
  1804   H3    1.377   -0.966    0.891   H1    82      1QB   0.000000
  1805   O3    1.346   -2.069   -0.868   Oh    82      1QB  -0.689000
  1806  H3O    1.261   -2.916   -0.413   Ho    82      1QB   0.420000
  1807   C2   -0.662   -1.493    0.402   Cg    82      1QB   0.323000
  1808   H2   -1.238   -1.739   -0.493   H1    82      1QB   0.000000
  1809   O2   -0.572   -2.682    1.244   Oh    82      1QB  -0.713000
  1810  H2O   -1.460   -2.893    1.559   Ho    82      1QB   0.420000
  1811   O1   -0.967    1.993    1.039   Os    83      1RA  -0.388000
  1812   C1   -1.545    0.773    0.545   Cg    83      1RA   0.488000
  1813   H1   -2.579    0.723    0.885   H2    83      1RA   0.000000
  1814   C2   -0.784   -0.465    1.075   Cg    83      1RA   0.253000
  1815   H2   -1.388   -1.336    0.815   H1    83      1RA   0.000000
  1816   C3    0.611   -0.691    0.458   Cg    83      1RA   0.345000
  1817   H3    1.019   -1.646    0.793   H1    83      1RA   0.000000
  1818   C4    0.470   -0.683   -1.077   Cg    83      1RA   0.122000
  1819   H4   -0.117   -1.554   -1.373   H1    83      1RA   0.000000
  1820   C5   -0.229    0.574   -1.618   Cg    83      1RA   0.377000
  1821  H5E   -0.394    0.484   -2.692   H1    83      1RA   0.000000
  1822  H5A    0.381    1.461   -1.440   H1    83      1RA   0.000000
  1823   O5   -1.536    0.737   -0.938   Os    83      1RA  -0.561000
  1824   O4    1.764   -0.797   -1.693   Oh    83      1RA  -0.663000
  1825  H4O    2.294   -0.030   -1.463   Ho    83      1RA   0.419000
  1826   O3    1.503    0.369    0.872   Oh    83      1RA  -0.737000
  1827  H3O    2.378    0.209    0.512   Ho    83      1RA   0.443000
  1828   O2   -0.705   -0.437    2.512   Oh    83      1RA  -0.711000
  1829  H2O   -0.177    0.316    2.787   Ho    83      1RA   0.419000
  1830   O1   -2.942   -0.336    0.746   Os    84      1RB  -0.388000
  1831   C1   -1.557   -0.053    0.783   Cg    84      1RB   0.481000
  1832   H1   -1.228    0.022    1.820   H2    84      1RB   0.000000
  1833   O5   -1.444    1.258    0.127   Os    84      1RB  -0.576000
  1834   C5   -0.055    1.747   -0.086   Cg    84      1RB   0.335000
  1835  H5E   -0.091    2.676   -0.654   H1    84      1RB   0.000000
  1836  H5A    0.402    1.962    0.881   H1    84      1RB   0.000000
  1837   C4    0.766    0.685   -0.858   Cg    84      1RB   0.236000
  1838   H4    0.330    0.566   -1.851   H1    84      1RB   0.000000
  1839   O4    2.139    1.128   -1.028   Oh    84      1RB  -0.695000
  1840  H4O    2.583    0.593   -1.695   Ho    84      1RB   0.411000
  1841   C3    0.728   -0.680   -0.127   Cg    84      1RB   0.203000
  1842   H3    1.294   -1.417   -0.698   H1    84      1RB   0.000000
  1843   O3    1.346   -0.523    1.186   Oh    84      1RB  -0.696000
  1844  H3O    2.241   -0.180    1.074   Ho    84      1RB   0.428000
  1845   C2   -0.748   -1.135   -0.004   Cg    84      1RB   0.385000
  1846   H2   -1.165   -1.206   -1.010   H1    84      1RB   0.000000
  1847   O2   -0.839   -2.465    0.588   Oh    84      1RB  -0.732000
  1848  H2O   -1.760   -2.642    0.807   Ho    84      1RB   0.414000
  1849   O1   -0.295    2.191    1.594   Os    85      1TA  -0.388000
  1850   C1   -0.950    0.944    1.319   Cg    85      1TA   0.456000
  1851   H1   -1.913    0.956    1.832   H2    85      1TA   0.000000
  1852   C2   -0.087   -0.204    1.882   Cg    85      1TA   0.245000
  1853   H2    0.265    0.048    2.883   H1    85      1TA   0.000000
  1854   C3    1.118   -0.524    0.970   Cg    85      1TA   0.124000
  1855   H3    1.802    0.323    1.045   H1    85      1TA   0.000000
  1856   C4    0.776   -0.686   -0.526   Cg    85      1TA   0.434000
  1857   H4    1.696   -0.780   -1.105   H1    85      1TA   0.000000
  1858   C5   -0.019    0.544   -1.016   Cg    85      1TA   0.157000
  1859   H5    0.635    1.414   -0.927   H1    85      1TA   0.000000
  1860   C6   -0.498    0.466   -2.472   Cg    85      1TA   0.304000
  1861  H62    0.339    0.240   -3.133   H1    85      1TA   0.000000
  1862  H61   -1.254   -0.312   -2.592   H1    85      1TA   0.000000
  1863   O6   -1.057    1.733   -2.845   Oh    85      1TA  -0.669000
  1864  H6O   -0.389    2.416   -2.753   Ho    85      1TA   0.401000
  1865   O5   -1.198    0.758   -0.133   Os    85      1TA  -0.480000
  1866   O4   -0.019   -1.873   -0.731   Oh    85      1TA  -0.731000
  1867  H4O   -0.223   -1.964   -1.665   Ho    85      1TA   0.417000
  1868   O3    1.834   -1.673    1.455   Oh    85      1TA  -0.687000
  1869  H3O    2.084   -1.531    2.372   Ho    85      1TA   0.442000
  1870   O2   -0.953   -1.350    1.988   Oh    85      1TA  -0.655000
  1871  H2O   -1.696   -1.138    2.557   Ho    85      1TA   0.436000
  1872   O1   -2.766   -0.006    1.516   Os    86      1TB  -0.388000
  1873   C1   -1.414    0.320    1.162   Cg    86      1TB   0.306000
  1874   H1   -1.169    1.269    1.640   H2    86      1TB   0.000000
  1875   O5   -1.242    0.479   -0.300   Os    86      1TB  -0.354000
  1876   C5    0.118    0.902   -0.728   Cg    86      1TB   0.031000
  1877   H5    0.356    1.840   -0.222   H1    86      1TB   0.000000
  1878   C6    0.101    1.177   -2.238   Cg    86      1TB   0.349000
  1879  H62   -0.249    0.302   -2.788   H1    86      1TB   0.000000
  1880  H61    1.102    1.429   -2.587   H1    86      1TB   0.000000
  1881   O6   -0.776    2.282   -2.497   Oh    86      1TB  -0.666000
  1882  H6O   -1.659    2.068   -2.187   Ho    86      1TB   0.406000
  1883   C4    1.153   -0.150   -0.263   Cg    86      1TB   0.314000
  1884   H4    2.161    0.223   -0.453   H1    86      1TB   0.000000
  1885   O4    0.963   -1.361   -1.024   Oh    86      1TB  -0.626000
  1886  H4O    1.076   -1.173   -1.958   Ho    86      1TB   0.413000
  1887   C3    0.983   -0.436    1.248   Cg    86      1TB   0.174000
  1888   H3    1.267    0.475    1.775   H1    86      1TB   0.000000
  1889   O3    1.898   -1.460    1.678   Oh    86      1TB  -0.678000
  1890  H3O    1.683   -2.285    1.237   Ho    86      1TB   0.425000
  1891   C2   -0.460   -0.774    1.687   Cg    86      1TB   0.340000
  1892   H2   -0.515   -0.827    2.775   H1    86      1TB   0.000000
  1893   O2   -0.851   -2.050    1.136   Oh    86      1TB  -0.637000
  1894  H2O   -1.757   -2.243    1.390   Ho    86      1TB   0.397000
  1895   O1   -3.131    0.211    0.810   Os    87      1UA  -0.388000
  1896   C1   -1.820    0.377    0.303   Cg    87      1UA   0.363000
  1897   H1   -1.795    1.267   -0.326   H2    87      1UA   0.000000
  1898   C2   -1.350   -0.877   -0.496   Cg    87      1UA   0.259000
  1899   H2   -1.627   -1.773    0.064   H1    87      1UA   0.000000
  1900   C3    0.194   -0.860   -0.682   Cg    87      1UA   0.417000
  1901   H3    0.451   -0.099   -1.422   H1    87      1UA   0.000000
  1902   C4    0.970   -0.559    0.627   Cg    87      1UA   0.223000
  1903   H4    0.781   -1.368    1.336   H1    87      1UA   0.000000
  1904   C5    0.476    0.760    1.251   Cg    87      1UA   0.232000
  1905   H5    0.945    0.855    2.232   H1    87      1UA   0.000000
  1906   C6    0.976    2.018    0.416    C    87      1UA   0.697000
  1907  O6A    0.119    2.825   -0.011   O2    87      1UA  -0.757000
  1908  O6B    2.206    2.098    0.183   O2    87      1UA  -0.757000
  1909   O5   -0.999    0.599    1.495   Os    87      1UA  -0.515000
  1910   O4    2.410   -0.511    0.381   Oh    87      1UA  -0.711000
  1911  H4O    2.650    0.430    0.220   Ho    87      1UA   0.397000
  1912   O3    0.659   -2.148   -1.172   Oh    87      1UA  -0.771000
  1913  H3O    1.617   -2.135   -1.050   Ho    87      1UA   0.417000
  1914   O2   -2.022   -0.915   -1.802   Oh    87      1UA  -0.685000
  1915  H2O   -1.710   -0.196   -2.356   Ho    87      1UA   0.385000
  1916   O1   -1.149    0.320    2.201   Os    88      1UB  -0.388000
  1917   C1    0.212    0.581    1.843   Cg    88      1UB   0.278000
  1918   H1    0.754    0.878    2.742   H2    88      1UB   0.000000
  1919   O5    0.250    1.700    0.878   Os    88      1UB  -0.430000
  1920   C5   -0.304    1.455   -0.507   Cg    88      1UB   0.194000
  1921   H5   -0.018    2.316   -1.113   H1    88      1UB   0.000000
  1922   C6   -1.876    1.360   -0.645    C    88      1UB   0.750000
  1923  O6B   -2.346    1.056   -1.769   O2    88      1UB  -0.783000
  1924  O6A   -2.560    1.561    0.384   O2    88      1UB  -0.783000
  1925   C4    0.397    0.216   -1.110   Cg    88      1UB   0.308000
  1926   H4    1.451    0.468   -1.246   H1    88      1UB   0.000000
  1927   O4   -0.137   -0.120   -2.422   Oh    88      1UB  -0.745000
  1928  H4O   -1.072    0.198   -2.440   Ho    88      1UB   0.422000
  1929   C3    0.318   -1.014   -0.167   Cg    88      1UB   0.286000
  1930   H3   -0.721   -1.329   -0.053   H1    88      1UB   0.000000
  1931   O3    1.081   -2.111   -0.753   Oh    88      1UB  -0.755000
  1932  H3O    0.838   -2.125   -1.690   Ho    88      1UB   0.421000
  1933   C2    0.920   -0.652    1.209   Cg    88      1UB   0.289000
  1934   H2    1.965   -0.378    1.053   H1    88      1UB   0.000000
  1935   O2    0.919   -1.811    2.089   Oh    88      1UB  -0.680000
  1936  H2O    1.076   -2.570    1.515   Ho    88      1UB   0.422000
  1937   O1   -1.865    1.439    0.395   Os    89      1VA  -0.388000
  1938   C1   -0.487    1.385    0.010   Cg    89      1VA   0.389000
  1939   H1   -0.302    2.187   -0.704   H2    89      1VA   0.000000
  1940   C2   -0.107    0.023   -0.656   Cg    89      1VA   0.399000
  1941   H2    0.904    0.124   -1.056   H1    89      1VA   0.000000
  1942   C3   -0.091   -1.120    0.392   Cg    89      1VA   0.176000
  1943   H3   -1.107   -1.260    0.766   H1    89      1VA   0.000000
  1944   C4    0.818   -0.778    1.596   Cg    89      1VA   0.326000
  1945   H4    0.741   -1.573    2.340   H1    89      1VA   0.000000
  1946   C5    0.401    0.564    2.245   Cg    89      1VA   0.112000
  1947   H5   -0.602    0.421    2.649   H1    89      1VA   0.000000
  1948   C6    1.284    1.009    3.430   Cg    89      1VA   0.362000
  1949  H62    0.886    1.923    3.871   H1    89      1VA   0.000000
  1950  H61    1.283    0.235    4.197   H1    89      1VA   0.000000
  1951   O6    2.635    1.243    3.007   Oh    89      1VA  -0.711000
  1952  H6O    2.791    0.665    2.241   Ho    89      1VA   0.424000
  1953   O5    0.311    1.649    1.217   Os    89      1VA  -0.466000
  1954   O4    2.193   -0.710    1.142   Oh    89      1VA  -0.701000
  1955  H4O    2.348   -1.503    0.609   Ho    89      1VA   0.442000
  1956   O3    0.339   -2.393   -0.184   Oh    89      1VA  -0.678000
  1957  H3O   -0.232   -2.640   -0.920   Ho    89      1VA   0.425000
  1958   N2   -1.012   -0.310   -1.784   Ng    89      1VA  -0.595000
  1959  H2N   -1.883   -0.761   -1.559    H    89      1VA   0.238000
  1960  C2N   -0.849    0.196   -3.009    C    89      1VA   0.625000
  1961  CME   -1.931   -0.164   -4.046   Cg    89      1VA   0.032000
  1962  H3M   -2.923    0.038   -3.638   Hc    89      1VA   0.000000
  1963  H2M   -1.798    0.430   -4.951   Hc    89      1VA   0.000000
  1964  H1M   -1.856   -1.222   -4.302   Hc    89      1VA   0.000000
  1965  O2N    0.111    0.903   -3.297    O    89      1VA  -0.605000
  1966   O1   -2.559    0.266    1.050   Os    90      1VB  -0.388000
  1967   C1   -1.167    0.528    0.878   Cg    90      1VB   0.305000
  1968   H1   -0.720    0.643    1.867   H2    90      1VB   0.000000
  1969   O5   -1.064    1.817    0.174   Os    90      1VB  -0.408000
  1970   C5    0.320    2.276   -0.157   Cg    90      1VB   0.136000
  1971   H5    0.852    2.444    0.781   H1    90      1VB   0.000000
  1972   C6    0.259    3.613   -0.918   Cg    90      1VB   0.353000
  1973  H62   -0.353    3.522   -1.816   H1    90      1VB   0.000000
  1974  H61    1.261    3.928   -1.212   H1    90      1VB   0.000000
  1975   O6   -0.309    4.612   -0.057   Oh    90      1VB  -0.714000
  1976  H6O   -1.185    4.311    0.202   Ho    90      1VB   0.427000
  1977   C4    1.078    1.178   -0.933   Cg    90      1VB   0.253000
  1978   H4    2.117    1.483   -1.065   H1    90      1VB   0.000000
  1979   O4    0.482    1.006   -2.238   Oh    90      1VB  -0.690000
  1980  H4O    0.791    0.163   -2.600   Ho    90      1VB   0.440000
  1981   C3    1.035   -0.170   -0.182   Cg    90      1VB   0.152000
  1982   H3    1.541   -0.040    0.777   H1    90      1VB   0.000000
  1983   O3    1.802   -1.155   -0.943   Oh    90      1VB  -0.665000
  1984  H3O    2.743   -1.093   -0.749   Ho    90      1VB   0.415000
  1985   C2   -0.431   -0.616    0.100   Cg    90      1VB   0.544000
  1986   H2   -0.942   -0.759   -0.853   H1    90      1VB   0.000000
  1987   N2   -0.451   -1.882    0.869   Ng    90      1VB  -0.686000
  1988  H2N   -0.224   -1.845    1.847    H    90      1VB   0.254000
  1989  C2N   -0.791   -3.053    0.324    C    90      1VB   0.586000
  1990  O2N   -1.107   -3.162   -0.857    O    90      1VB  -0.564000
  1991  CME   -0.752   -4.279    1.260   Cg    90      1VB   0.056000
  1992  H3M   -1.064   -4.003    2.269   Hc    90      1VB   0.000000
  1993  H2M   -1.425   -5.054    0.888   Hc    90      1VB   0.000000
  1994  H1M    0.263   -4.677    1.295   Hc    90      1VB   0.000000
  1995   O1   -2.765    1.202    0.006   Os    91      1WA  -0.388000
  1996   C1   -1.393    1.241   -0.367   Cg    91      1WA   0.462100
  1997   H1   -1.250    2.075   -1.054   H2    91      1WA   0.000000
  1998   C2   -0.962   -0.084   -1.055   Cg    91      1WA   0.275000
  1999   H2   -1.671   -0.298   -1.858   H1    91      1WA   0.000000
  2000   C3   -1.011   -1.249   -0.035   Cg    91      1WA   0.252000
  2001   H3   -2.051   -1.408    0.254   H1    91      1WA   0.000000
  2002   C4   -0.187   -0.949    1.243   Cg    91      1WA   0.321300
  2003   H4    0.871   -0.951    0.978   H1    91      1WA   0.000000
  2004   C5   -0.550    0.413    1.881   Cg    91      1WA   0.242100
  2005   H5   -1.550    0.327    2.309   H1    91      1WA   0.000000
  2006   C6    0.399    0.831    3.027   Cg    91      1WA   0.299500
  2007  H62    0.155    1.842    3.352   H1    91      1WA   0.000000
  2008  H61    0.265    0.166    3.880   H1    91      1WA   0.000000
  2009   O6    1.784    0.791    2.625   Oh    91      1WA  -0.661800
  2010  H6O    2.118   -0.107    2.698   Ho    91      1WA   0.395900
  2011   O5   -0.612    1.495    0.851   Os    91      1WA  -0.541500
  2012   O4   -0.417   -1.999    2.228   Oh    91      1WA  -0.730500
  2013  H4O   -1.358   -2.100    2.413   Ho    91      1WA   0.442400
  2014   O3   -0.529   -2.478   -0.646   Oh    91      1WA  -0.698700
  2015  H3O   -0.435   -3.160    0.031   Ho    91      1WA   0.415900
  2016   N2    0.377    0.045   -1.678   Ng    91      1WA  -0.475100
  2017  H2N    1.138   -0.463   -1.257    H    91      1WA   0.214200
  2018  C2N    0.610    0.725   -2.804    C    91      1WA   0.590900
  2019  CME    2.061    0.691   -3.316   Cg    91      1WA  -0.034000
  2020  H3M    2.728    1.117   -2.565   Hc    91      1WA   0.000000
  2021  H2M    2.150    1.270   -4.236   Hc    91      1WA   0.000000
  2022  H1M    2.358   -0.339   -3.519   Hc    91      1WA   0.000000
  2023  O2N   -0.272    1.353   -3.385    O    91      1WA  -0.575700
  2024   O1   -2.297   -0.241    1.900   Os    92      1WB  -0.388000
  2025   C1   -0.927    0.059    1.698   Cg    92      1WB   0.387000
  2026   H1   -0.445    0.149    2.673   H2    92      1WB   0.000000
  2027   O5   -0.874    1.354    1.017   Os    92      1WB  -0.498000
  2028   C5    0.510    1.870    0.771   Cg    92      1WB   0.321000
  2029   H5    0.993    2.021    1.739   H1    92      1WB   0.000000
  2030   C6    0.414    3.232    0.053   Cg    92      1WB   0.247000
  2031  H62   -0.064    3.109   -0.920   H1    92      1WB   0.000000
  2032  H61    1.408    3.650   -0.105   H1    92      1WB   0.000000
  2033   O6   -0.361    4.160    0.839   Oh    92      1WB  -0.663000
  2034  H6O   -1.226    3.777    1.011   Ho    92      1WB   0.413000
  2035   C4    1.324    0.829   -0.037   Cg    92      1WB   0.277000
  2036   H4    0.940    0.784   -1.058   H1    92      1WB   0.000000
  2037   O4    2.709    1.247   -0.081   Oh    92      1WB  -0.743000
  2038  H4O    3.221    0.517   -0.458   Ho    92      1WB   0.439000
  2039   C3    1.246   -0.583    0.601   Cg    92      1WB   0.217000
  2040   H3    1.751   -0.559    1.568   H1    92      1WB   0.000000
  2041   O3    1.953   -1.537   -0.245   Oh    92      1WB  -0.658000
  2042  H3O    1.543   -2.416   -0.175   Ho    92      1WB   0.413000
  2043   C2   -0.218   -1.031    0.842   Cg    92      1WB   0.294000
  2044   H2   -0.196   -1.953    1.427   H1    92      1WB   0.000000
  2045   N2   -0.928   -1.306   -0.433   Ng    92      1WB  -0.558000
  2046  H2N   -1.441   -0.546   -0.851    H    92      1WB   0.265000
  2047  C2N   -0.950   -2.506   -1.022    C    92      1WB   0.585000
  2048  O2N   -0.304   -3.450   -0.574    O    92      1WB  -0.600000
  2049  CME   -1.794   -2.632   -2.309   Cg    92      1WB   0.056000
  2050  H3M   -2.475   -1.785   -2.420   Hc    92      1WB   0.000000
  2051  H2M   -2.383   -3.550   -2.278   Hc    92      1WB   0.000000
  2052  H1M   -1.128   -2.664   -3.172   Hc    92      1WB   0.000000
  2053   O1   -1.880    1.563   -0.310   Os    93      1XA  -0.388000
  2054   C1   -0.511    1.583   -0.682   Cg    93      1XA   0.482000
  2055   H1   -0.359    2.365   -1.426   H2    93      1XA   0.000000
  2056   C2   -0.063    0.215   -1.263   Cg    93      1XA   0.197000
  2057   H2    0.950    0.334   -1.650   H1    93      1XA   0.000000
  2058   C3   -0.044   -0.875   -0.171   Cg    93      1XA   0.359000
  2059   H3   -1.068   -1.102    0.134   H1    93      1XA   0.000000
  2060   C4    0.786   -0.451    1.064   Cg    93      1XA   0.247000
  2061   H4    1.837   -0.363    0.786   H1    93      1XA   0.000000
  2062   C5    0.298    0.904    1.606   Cg    93      1XA   0.335000
  2063  H5E    0.969    1.255    2.390   H1    93      1XA   0.000000
  2064  H5A   -0.698    0.798    2.041   H1    93      1XA   0.000000
  2065   O5    0.244    1.924    0.524   Os    93      1XA  -0.588000
  2066   O4    0.662   -1.444    2.118   Oh    93      1XA  -0.720000
  2067  H4O    0.912   -2.302    1.749   Ho    93      1XA   0.420000
  2068   O3    0.549   -2.072   -0.738   Oh    93      1XA  -0.712000
  2069  H3O    0.173   -2.187   -1.621   Ho    93      1XA   0.421000
  2070   O2   -0.922   -0.189   -2.377   Oh    93      1XA  -0.656000
  2071  H2O   -1.838    0.046   -2.175   Ho    93      1XA   0.409000
  2072   O1   -2.799   -0.125    1.200   Os    94      1XB  -0.388000
  2073   C1   -1.420    0.170    1.015   Cg    94      1XB   0.248000
  2074   H1   -0.954    0.312    1.991   H2    94      1XB   0.000000
  2075   O5   -1.354    1.429    0.268   Os    94      1XB  -0.447000
  2076   C5    0.013    1.882   -0.086   Cg    94      1XB   0.303000
  2077  H5E   -0.056    2.806   -0.659   H1    94      1XB   0.000000
  2078  H5A    0.568    2.090    0.831   H1    94      1XB   0.000000
  2079   C4    0.724    0.794   -0.914   Cg    94      1XB   0.286000
  2080   H4    0.226    0.698   -1.879   H1    94      1XB   0.000000
  2081   O4    2.093    1.208   -1.134   Oh    94      1XB  -0.723000
  2082  H4O    2.552    0.472   -1.559   Ho    94      1XB   0.430000
  2083   C3    0.716   -0.570   -0.187   Cg    94      1XB   0.228000
  2084   H3    1.341   -0.501    0.706   H1    94      1XB   0.000000
  2085   O3    1.283   -1.581   -1.071   Oh    94      1XB  -0.682000
  2086  H3O    1.243   -2.435   -0.618   Ho    94      1XB   0.427000
  2087   C2   -0.717   -0.977    0.232   Cg    94      1XB   0.425000
  2088   H2   -1.302   -1.221   -0.657   H1    94      1XB   0.000000
  2089   O2   -0.638   -2.153    1.080   Oh    94      1XB  -0.699000
  2090  H2O   -1.521   -2.299    1.441   Ho    94      1XB   0.398000
  2091   O1   -2.034    1.512    0.183   Os    95      1YA  -0.388000
  2092   C1   -0.643    1.586   -0.095   Cg    95      1YA   0.468000
  2093   H1   -0.474    2.428   -0.766   H2    95      1YA   0.000000
  2094   C2   -0.101    0.289   -0.769   Cg    95      1YA   0.245000
  2095   H2    0.919    0.504   -1.094   H1    95      1YA   0.000000
  2096   C3   -0.038   -0.897    0.222   Cg    95      1YA   0.165000
  2097   H3   -1.057   -1.213    0.456   H1    95      1YA   0.000000
  2098   C4    0.694   -0.525    1.532   Cg    95      1YA   0.322000
  2099   H4    1.757   -0.399    1.321   H1    95      1YA   0.000000
  2100   C5    0.133    0.760    2.179   Cg    95      1YA   0.246000
  2101   H5   -0.877    0.547    2.535   H1    95      1YA   0.000000
  2102   C6    0.960    1.227    3.396   Cg    95      1YA   0.328000
  2103  H62    0.929    0.472    4.181   H1    95      1YA   0.000000
  2104  H61    0.531    2.144    3.800   H1    95      1YA   0.000000
  2105   O6    2.338    1.476    3.042   Oh    95      1YA  -0.688000
  2106  H6O    2.819    1.770    3.819   Ho    95      1YA   0.421000
  2107   O5    0.021    1.870    1.177   Os    95      1YA  -0.568000
  2108   O4    0.526   -1.622    2.462   Oh    95      1YA  -0.733000
  2109  H4O    0.750   -2.425    1.973   Ho    95      1YA   0.449000
  2110   O3    0.665   -2.018   -0.387   Oh    95      1YA  -0.630000
  2111  H3O    0.768   -1.864   -1.347   Ho    95      1YA   0.413000
  2112   N2   -0.892   -0.059   -1.978   Ng    95      1YA  -0.552000
  2113  H2N   -1.866    0.203   -1.960    H    95      1YA   0.236000
  2114  C2N   -0.418   -0.740   -3.028    C    95      1YA   0.588000
  2115  CME   -1.364   -0.918   -4.235   Cg    95      1YA   0.063000
  2116  H3M   -2.317   -0.412   -4.072   Hc    95      1YA   0.000000
  2117  H2M   -0.894   -0.502   -5.128   Hc    95      1YA   0.000000
  2118  H1M   -1.551   -1.980   -4.395   Hc    95      1YA   0.000000
  2119  O2N    0.715   -1.212   -3.025    O    95      1YA  -0.579000
  2120   O1   -2.573    0.156    0.963   Os    96      1YB  -0.388000
  2121   C1   -1.196    0.479    0.803   Cg    96      1YB   0.287000
  2122   H1   -0.759    0.615    1.794   H2    96      1YB   0.000000
  2123   O5   -1.141    1.760    0.089   Os    96      1YB  -0.433000
  2124   C5    0.232    2.281   -0.177   Cg    96      1YB   0.208000
  2125   H5    0.731    2.437    0.782   H1    96      1YB   0.000000
  2126   C6    0.137    3.634   -0.907   Cg    96      1YB   0.289000
  2127  H62   -0.358    3.509   -1.872   H1    96      1YB   0.000000
  2128  H61    1.131    4.046   -1.081   H1    96      1YB   0.000000
  2129   O6   -0.618    4.564   -0.109   Oh    96      1YB  -0.689000
  2130  H6O   -1.469    4.167    0.095   Ho    96      1YB   0.424000
  2131   C4    1.013    1.226   -0.986   Cg    96      1YB   0.302000
  2132   H4    0.563    1.118   -1.975   H1    96      1YB   0.000000
  2133   O4    2.375    1.679   -1.141   Oh    96      1YB  -0.716000
  2134  H4O    2.862    0.961   -1.568   Ho    96      1YB   0.436000
  2135   C3    1.030   -0.146   -0.272   Cg    96      1YB   0.180000
  2136   H3    1.564   -0.044    0.675   H1    96      1YB   0.000000
  2137   O3    1.771   -1.090   -1.107   Oh    96      1YB  -0.681000
  2138  H3O    1.925   -1.916   -0.634   Ho    96      1YB   0.423000
  2139   C2   -0.416   -0.634    0.023   Cg    96      1YB   0.480000
  2140   H2   -0.924   -0.785   -0.932   H1    96      1YB   0.000000
  2141   N2   -0.400   -1.908    0.784   Ng    96      1YB  -0.722000
  2142  H2N   -0.216   -1.859    1.772    H    96      1YB   0.300000
  2143  C2N   -0.812   -3.071    0.271    C    96      1YB   0.648000
  2144  O2N   -1.124   -3.189   -0.908    O    96      1YB  -0.576000
  2145  CME   -0.830   -4.277    1.232   Cg    96      1YB   0.034000
  2146  H3M   -1.150   -3.969    2.230   Hc    96      1YB   0.000000
  2147  H2M   -1.520   -5.038    0.865   Hc    96      1YB   0.000000
  2148  H1M    0.171   -4.706    1.292   Hc    96      1YB   0.000000
  2149   O1   -0.195    0.446    2.495   Os    97      1ZA  -0.388000
  2150   C1   -1.047   -0.195    1.553   Cg    97      1ZA   0.398000
  2151   H1   -1.949   -0.526    2.067   H2    97      1ZA   0.000000
  2152   C2   -0.369   -1.406    0.861   Cg    97      1ZA   0.326000
  2153   H2   -1.130   -1.909    0.263   H1    97      1ZA   0.000000
  2154   C3    0.785   -0.979   -0.077   Cg    97      1ZA   0.300000
  2155   H3    1.625   -0.643    0.534   H1    97      1ZA   0.000000
  2156   C4    0.382    0.161   -1.054   Cg    97      1ZA   0.193000
  2157   H4   -0.285   -0.240   -1.819   H1    97      1ZA   0.000000
  2158   C5   -0.332    1.343   -0.352   Cg    97      1ZA   0.187000
  2159   H5    0.410    1.819    0.294   H1    97      1ZA   0.000000
  2160   C6   -0.733    2.490   -1.388    C    97      1ZA   0.798000
  2161  O6A    0.075    2.742   -2.320   O2    97      1ZA  -0.787000
  2162  O6B   -1.796    3.122   -1.196   O2    97      1ZA  -0.787000
  2163   O5   -1.411    0.825    0.577   Os    97      1ZA  -0.544000
  2164   O4    1.568    0.692   -1.701   Oh    97      1ZA  -0.682000
  2165  H4O    1.273    1.493   -2.188   Ho    97      1ZA   0.422000
  2166   O3    1.197   -2.164   -0.821   Oh    97      1ZA  -0.743000
  2167  H3O    1.323   -2.870   -0.179   Ho    97      1ZA   0.439000
  2168   O2    0.113   -2.359    1.867   Oh    97      1ZA  -0.732000
  2169  H2O    0.497   -1.842    2.586   Ho    97      1ZA   0.406000
  2170   O1   -2.920   -0.603    1.179   Os    98      1ZB  -0.388000
  2171   C1   -1.522   -0.351    1.073   Cg    98      1ZB   0.251000
  2172   H1   -1.109   -0.215    2.073   H2    98      1ZB   0.000000
  2173   O5   -1.397    0.902    0.334   Os    98      1ZB  -0.413000
  2174   C5    0.001    1.377    0.061   Cg    98      1ZB   0.075000
  2175   H5    0.491    1.495    1.030   H1    98      1ZB   0.000000
  2176   C6    0.151    2.781   -0.658    C    98      1ZB   0.893000
  2177  O6B    1.279    3.069   -1.132   O2    98      1ZB  -0.818000
  2178  O6A   -0.846    3.537   -0.695   O2    98      1ZB  -0.818000
  2179   C4    0.744    0.273   -0.717   Cg    98      1ZB   0.267000
  2180   H4    0.314    0.211   -1.718   H1    98      1ZB   0.000000
  2181   O4    2.140    0.643   -0.840   Oh    98      1ZB  -0.733000
  2182  H4O    2.135    1.604   -1.065   Ho    98      1ZB   0.429000
  2183   C3    0.659   -1.120   -0.037   Cg    98      1ZB   0.266000
  2184   H3    1.257   -1.101    0.877   H1    98      1ZB   0.000000
  2185   O3    1.246   -2.090   -0.955   Oh    98      1ZB  -0.701000
  2186  H3O    2.087   -1.708   -1.236   Ho    98      1ZB   0.403000
  2187   C2   -0.797   -1.508    0.328   Cg    98      1ZB   0.411000
  2188   H2   -1.346   -1.744   -0.586   H1    98      1ZB   0.000000
  2189   O2   -0.824   -2.672    1.206   Oh    98      1ZB  -0.740000
  2190  H2O   -1.741   -2.780    1.476   Ho    98      1ZB   0.422000
  2191   C1   -1.546    0.885    0.771   Cg    99      2AA   0.448000
  2192   H1   -2.557    0.795    1.172   H2    99      2AA   0.000000
  2193   C2   -0.668   -0.248    1.352   Cg    99      2AA   0.268000
  2194   H2   -0.440   -0.043    2.400   H1    99      2AA   0.000000
  2195   C3    0.635   -0.529    0.576   Cg    99      2AA   0.335000
  2196   H3    1.074   -1.473    0.904   H1    99      2AA   0.000000
  2197   C4    0.391   -0.565   -0.947   Cg    99      2AA   0.245000
  2198   H4   -0.205   -1.448   -1.182   H1    99      2AA   0.000000
  2199   C5   -0.357    0.670   -1.461   Cg    99      2AA   0.379000
  2200  H5E   -0.582    0.564   -2.522   H1    99      2AA   0.000000
  2201  H5A    0.240    1.572   -1.324   H1    99      2AA   0.000000
  2202   O5   -1.624    0.799   -0.708   Os    99      2AA  -0.564000
  2203   O4    1.640   -0.680   -1.648   Oh    99      2AA  -0.748000
  2204  H4O    2.190    0.082   -1.448   Ho    99      2AA   0.434000
  2205   O3    1.556    0.530    0.903   Oh    99      2AA  -0.772000
  2206  H3O    1.710    0.538    1.850   Ho    99      2AA   0.461000
  2207   O2   -1.456   -1.449    1.311   Os    99      2AA  -0.486000
  2208   C1   -1.839   -0.175    0.879   Cg   100      2AB   0.379000
  2209   H1   -1.482   -0.078    1.905   H2   100      2AB   0.000000
  2210   O5   -1.688    1.117    0.203   Os   100      2AB  -0.529000
  2211   C5   -0.281    1.560    0.031   Cg   100      2AB   0.356000
  2212  H5E   -0.271    2.497   -0.525   H1   100      2AB   0.000000
  2213  H5A    0.158    1.745    1.012   H1   100      2AB   0.000000
  2214   C4    0.527    0.485   -0.732   Cg   100      2AB   0.224000
  2215   H4    0.122    0.408   -1.742   H1   100      2AB   0.000000
  2216   O4    1.925    0.884   -0.845   Oh   100      2AB  -0.730000
  2217  H4O    2.314    0.500   -1.639   Ho   100      2AB   0.440000
  2218   C3    0.413   -0.897   -0.037   Cg   100      2AB   0.297000
  2219   H3    0.933   -1.645   -0.637   H1   100      2AB   0.000000
  2220   O3    1.054   -0.841    1.267   Oh   100      2AB  -0.668000
  2221  H3O    1.915   -0.421    1.151   Ho   100      2AB   0.407000
  2222   C2   -1.061   -1.317    0.146   Cg   100      2AB   0.300000
  2223   H2   -1.117   -2.232    0.737   H1   100      2AB   0.000000
  2224   O2   -1.620   -1.590   -1.174   Os   100      2AB  -0.476000
  2225   O2   -0.155    0.884    2.041   Os   101      2BA  -0.388000
  2226   C2   -0.904    0.411    0.902   Cg   101      2BA   0.130000
  2227   C1   -2.366    0.132    1.369   Cg   101      2BA   0.428000
  2228  H12   -2.361   -0.482    2.271   H1   101      2BA   0.000000
  2229  H11   -2.863    1.072    1.610   H1   101      2BA   0.000000
  2230   O1   -3.134   -0.556    0.359   Oh   101      2BA  -0.678000
  2231  H1O   -2.823   -1.464    0.329   Ho   101      2BA   0.399000
  2232   C3   -0.240   -0.841    0.254   Cg   101      2BA   0.372000
  2233   H3   -0.817   -1.119   -0.631   H1   101      2BA   0.000000
  2234   C4    1.200   -0.522   -0.214   Cg   101      2BA   0.335000
  2235   H4    1.819   -0.251    0.644   H1   101      2BA   0.000000
  2236   C5    1.163    0.643   -1.236   Cg   101      2BA   0.224000
  2237   H5    0.624    0.325   -2.130   H1   101      2BA   0.000000
  2238   C6    0.453    1.886   -0.658   Cg   101      2BA   0.341000
  2239  H6E    0.303    2.629   -1.441   H1   101      2BA   0.000000
  2240  H6A    1.068    2.340    0.121   H1   101      2BA   0.000000
  2241   O6   -0.872    1.525   -0.075   Os   101      2BA  -0.507000
  2242   O5    2.513    1.023   -1.624   Oh   101      2BA  -0.690000
  2243  H5O    2.852    0.385   -2.261   Ho   101      2BA   0.429000
  2244   O4    1.781   -1.702   -0.851   Oh   101      2BA  -0.724000
  2245  H4O    2.736   -1.682   -0.722   Ho   101      2BA   0.421000
  2246   O3   -0.276   -1.981    1.159   Oh   101      2BA  -0.716000
  2247  H3O    0.302   -2.656    0.786   Ho   101      2BA   0.430000
  2248   O2   -2.718   -0.219    0.383   Os   102      2BB  -0.388000
  2249   C2   -1.312    0.068    0.391   Cg   102      2BB   0.227000
  2250   O6   -1.147    1.337   -0.357   Os   102      2BB  -0.477000
  2251   C6    0.243    1.772   -0.644   Cg   102      2BB   0.311000
  2252  H6E    0.216    2.683   -1.243   H1   102      2BB   0.000000
  2253  H6A    0.749    2.000    0.295   H1   102      2BB   0.000000
  2254   C5    0.992    0.658   -1.406   Cg   102      2BB   0.340000
  2255   H5    0.573    0.572   -2.410   H1   102      2BB   0.000000
  2256   O5    2.385    1.021   -1.510   Oh   102      2BB  -0.720000
  2257  H5O    2.844    0.243   -1.853   Ho   102      2BB   0.429000
  2258   C4    0.908   -0.710   -0.693   Cg   102      2BB   0.108000
  2259   H4    1.473   -0.665    0.241   H1   102      2BB   0.000000
  2260   O4    1.511   -1.730   -1.545   Oh   102      2BB  -0.675000
  2261  H4O    1.405   -2.593   -1.118   Ho   102      2BB   0.435000
  2262   C3   -0.565   -1.072   -0.374   Cg   102      2BB   0.464000
  2263   H3   -1.085   -1.259   -1.316   H1   102      2BB   0.000000
  2264   O3   -0.585   -2.299    0.403   Oh   102      2BB  -0.730000
  2265  H3O   -1.513   -2.499    0.574   Ho   102      2BB   0.432000
  2266   C1   -0.856    0.222    1.878   Cg   102      2BB   0.281000
  2267  H12   -1.124   -0.668    2.450   H1   102      2BB   0.000000
  2268  H11    0.227    0.333    1.929   H1   102      2BB   0.000000
  2269   O1   -1.460    1.373    2.507   Oh   102      2BB  -0.626000
  2270  H1O   -1.161    1.433    3.418   Ho   102      2BB   0.395000
  2271   O2   -0.312    0.674    2.206   Os   103      2CA  -0.388000
  2272   C2   -0.890    0.239    0.980   Cg   103      2CA   0.345000
  2273   C1   -2.402   -0.039    1.282   Cg   103      2CA   0.386000
  2274  H12   -2.485   -0.870    1.984   H1   103      2CA   0.000000
  2275  H11   -2.859    0.835    1.748   H1   103      2CA   0.000000
  2276   O1   -3.160   -0.368    0.095   Oh   103      2CA  -0.696000
  2277  H1O   -2.591   -0.930   -0.450   Ho   103      2CA   0.402000
  2278   C3   -0.109   -1.027    0.463   Cg   103      2CA   0.247000
  2279   H3    0.055   -1.704    1.304   H1   103      2CA   0.000000
  2280   C4    1.260   -0.686   -0.182   Cg   103      2CA   0.367000
  2281   H4    1.627   -1.565   -0.713   H1   103      2CA   0.000000
  2282   C5    1.161    0.485   -1.184   Cg   103      2CA   0.195000
  2283   H5    0.483    0.198   -1.989   H1   103      2CA   0.000000
  2284   C6    0.588    1.723   -0.475   Cg   103      2CA   0.437000
  2285  H6E    0.490    2.546   -1.183   H1   103      2CA   0.000000
  2286  H6A    1.245    2.051    0.332   H1   103      2CA   0.000000
  2287   O6   -0.753    1.407    0.076   Os   103      2CA  -0.620000
  2288   O5    2.464    0.767   -1.783   Oh   103      2CA  -0.709000
  2289  H5O    2.360    1.183   -2.647   Ho   103      2CA   0.415000
  2290   O4    2.232   -0.377    0.849   Oh   103      2CA  -0.720000
  2291  H4O    3.041   -0.093    0.405   Ho   103      2CA   0.394000
  2292   O3   -0.887   -1.773   -0.530   Oh   103      2CA  -0.655000
  2293  H3O   -0.558   -2.678   -0.590   Ho   103      2CA   0.406000
  2294   O2   -2.697   -0.409    0.360   Os   104      2CB  -0.388000
  2295   C2   -1.295   -0.087    0.362   Cg   104      2CB   0.244000
  2296   O6   -1.139    1.178   -0.390   Os   104      2CB  -0.460000
  2297   C6    0.244    1.623   -0.681   Cg   104      2CB   0.365000
  2298  H6E    0.205    2.543   -1.265   H1   104      2CB   0.000000
  2299  H6A    0.763    1.838    0.254   H1   104      2CB   0.000000
  2300   C5    0.981    0.527   -1.471   Cg   104      2CB   0.195000
  2301   H5    0.482    0.419   -2.436   H1   104      2CB   0.000000
  2302   O5    2.356    0.930   -1.733   Oh   104      2CB  -0.684000
  2303  H5O    2.888    0.767   -0.944   Ho   104      2CB   0.415000
  2304   C4    0.938   -0.841   -0.745   Cg   104      2CB   0.344000
  2305   H4    1.355   -1.601   -1.408   H1   104      2CB   0.000000
  2306   O4    1.778   -0.799    0.447   Oh   104      2CB  -0.698000
  2307  H4O    2.192   -1.661    0.568   Ho   104      2CB   0.417000
  2308   C3   -0.506   -1.243   -0.348   Cg   104      2CB   0.317000
  2309   H3   -0.478   -2.116    0.306   H1   104      2CB   0.000000
  2310   O3   -1.185   -1.634   -1.572   Oh   104      2CB  -0.697000
  2311  H3O   -2.126   -1.471   -1.414   Ho   104      2CB   0.407000
  2312   C1   -0.887    0.097    1.860   Cg   104      2CB   0.297000
  2313  H12   -1.064   -0.827    2.412   H1   104      2CB   0.000000
  2314  H11    0.170    0.337    1.946   H1   104      2CB   0.000000
  2315   O1   -1.633    1.165    2.491   Oh   104      2CB  -0.669000
  2316  H1O   -1.342    1.264    3.401   Ho   104      2CB   0.401000
  2317   C1   -0.763    1.687   -0.808   Cg   105      2DA   0.398000
  2318   H1   -0.591    2.490   -1.525   H2   105      2DA   0.000000
  2319   C2   -0.272    0.339   -1.417   Cg   105      2DA   0.246000
  2320   H2   -0.936    0.048   -2.233   H1   105      2DA   0.000000
  2321   C3   -0.269   -0.774   -0.339   Cg   105      2DA   0.184000
  2322   H3   -1.299   -0.925   -0.012   H1   105      2DA   0.000000
  2323   C4    0.580   -0.359    0.883   Cg   105      2DA   0.351000
  2324   H4    1.625   -0.241    0.595   H1   105      2DA   0.000000
  2325   C5    0.049    0.962    1.478   Cg   105      2DA   0.275000
  2326  H5E    0.713    1.309    2.270   H1   105      2DA   0.000000
  2327  H5A   -0.938    0.800    1.918   H1   105      2DA   0.000000
  2328   O5   -0.065    2.026    0.442   Os   105      2DA  -0.487000
  2329   O4    0.483   -1.389    1.894   Oh   105      2DA  -0.711000
  2330  H4O    0.652   -2.226    1.443   Ho   105      2DA   0.422000
  2331   O3    0.195   -2.044   -0.887   Oh   105      2DA  -0.655000
  2332  H3O   -0.229   -2.214   -1.734   Ho   105      2DA   0.417000
  2333   O2    1.066    0.511   -1.968   Os   105      2DA  -0.440000
  2334   C1    1.061    0.858    1.603   Cg   106      2DB   0.448000
  2335   H1    1.245    1.805    1.094   H2   106      2DB   0.000000
  2336   O5   -0.384    0.763    1.908   Os   106      2DB  -0.519000
  2337   C5   -1.280    0.825    0.732   Cg   106      2DB   0.275000
  2338  H5E   -2.312    0.701    1.061   H1   106      2DB   0.000000
  2339  H5A   -1.186    1.810    0.272   H1   106      2DB   0.000000
  2340   C4   -0.907   -0.279   -0.274   Cg   106      2DB   0.335000
  2341   H4   -1.212   -1.249    0.120   H1   106      2DB   0.000000
  2342   O4   -1.633   -0.009   -1.484   Oh   106      2DB  -0.709000
  2343  H4O   -1.437   -0.689   -2.133   Ho   106      2DB   0.436000
  2344   C3    0.603   -0.279   -0.591   Cg   106      2DB   0.201000
  2345   H3    0.851    0.627   -1.148   H1   106      2DB   0.000000
  2346   O3    0.928   -1.412   -1.419   Oh   106      2DB  -0.701000
  2347  H3O    0.413   -1.376   -2.228   Ho   106      2DB   0.432000
  2348   C2    1.472   -0.310    0.683   Cg   106      2DB   0.226000
  2349   H2    2.528   -0.231    0.420   H1   106      2DB   0.000000
  2350   O2    1.249   -1.555    1.385   Os   106      2DB  -0.424000
  2351   C1   -1.040    0.907    1.573   Cg   107      2EA   0.480000
  2352   H1   -1.974    0.970    2.132   H2   107      2EA   0.000000
  2353   C2   -0.224   -0.301    2.085   Cg   107      2EA   0.179000
  2354   H2    0.194   -0.079    3.069   H1   107      2EA   0.000000
  2355   C3    0.892   -0.779    1.136   Cg   107      2EA   0.328000
  2356   H3    1.267   -1.752    1.457   H1   107      2EA   0.000000
  2357   C4    0.405   -0.862   -0.327   Cg   107      2EA   0.261000
  2358   H4   -0.315   -1.678   -0.400   H1   107      2EA   0.000000
  2359   C5   -0.274    0.433   -0.813   Cg   107      2EA   0.374000
  2360   H5    0.453    1.247   -0.802   H1   107      2EA   0.000000
  2361   C6   -0.887    0.328   -2.217   Cg   107      2EA   0.259000
  2362  H62   -0.132    0.025   -2.942   H1   107      2EA   0.000000
  2363  H61   -1.694   -0.406   -2.232   H1   107      2EA   0.000000
  2364   O6   -1.402    1.611   -2.597   Oh   107      2EA  -0.663000
  2365  H6O   -0.689    2.254   -2.597   Ho   107      2EA   0.406000
  2366   O5   -1.370    0.755    0.136   Os   107      2EA  -0.587000
  2367   O4    1.518   -1.182   -1.182   Oh   107      2EA  -0.721000
  2368  H4O    2.177   -0.488   -1.120   Ho   107      2EA   0.415000
  2369   O3    1.970    0.173    1.243   Oh   107      2EA  -0.714000
  2370  H3O    2.270    0.215    2.154   Ho   107      2EA   0.420000
  2371   O2   -1.146   -1.391    2.244   Os   107      2EA  -0.437000
  2372   C1   -1.682   -0.822    1.036   Cg   108      2EB   0.488000
  2373   H1   -1.306   -0.720    2.054   H2   108      2EB   0.000000
  2374   O5   -1.548    0.465    0.344   Os   108      2EB  -0.532000
  2375   C5   -0.134    0.922    0.129   Cg   108      2EB   0.257000
  2376   H5    0.323    1.092    1.106   H1   108      2EB   0.000000
  2377   C6   -0.146    2.256   -0.643   Cg   108      2EB   0.278000
  2378  H62   -0.597    2.116   -1.626   H1   108      2EB   0.000000
  2379  H61    0.869    2.629   -0.781   H1   108      2EB   0.000000
  2380   O6   -0.907    3.237    0.084   Oh   108      2EB  -0.677000
  2381  H6O   -1.758    2.849    0.308   Ho   108      2EB   0.408000
  2382   C4    0.662   -0.175   -0.620   Cg   108      2EB   0.320000
  2383   H4    0.254   -0.275   -1.627   H1   108      2EB   0.000000
  2384   O4    2.063    0.206   -0.748   Oh   108      2EB  -0.724000
  2385  H4O    2.470   -0.272   -1.479   Ho   108      2EB   0.420000
  2386   C3    0.546   -1.546    0.103   Cg   108      2EB   0.315000
  2387   H3    1.069   -2.305   -0.481   H1   108      2EB   0.000000
  2388   O3    1.165   -1.485    1.417   Oh   108      2EB  -0.681000
  2389  H3O    2.048   -1.108    1.321   Ho   108      2EB   0.403000
  2390   C2   -0.926   -1.960    0.283   Cg   108      2EB   0.184000
  2391   H2   -0.984   -2.881    0.864   H1   108      2EB   0.000000
  2392   O2   -1.483   -2.221   -1.045   Os   108      2EB  -0.459000
  2393   C1   -0.849    1.540   -1.106   Cg   109      2FA   0.399000
  2394   H1   -0.622    2.398   -1.738   H2   109      2FA   0.000000
  2395   C2   -0.338    0.237   -1.808   Cg   109      2FA   0.456000
  2396   H2    0.728    0.362   -2.003   H1   109      2FA   0.000000
  2397   C3   -0.540   -0.980   -0.869   Cg   109      2FA   0.228000
  2398   H3   -1.603   -1.091   -0.648   H1   109      2FA   0.000000
  2399   C4    0.218   -0.751    0.462   Cg   109      2FA   0.263000
  2400   H4    0.004   -1.580    1.139   H1   109      2FA   0.000000
  2401   C5   -0.218    0.575    1.144   Cg   109      2FA   0.187000
  2402   H5   -1.254    0.447    1.462   H1   109      2FA   0.000000
  2403   C6    0.588    0.963    2.386   Cg   109      2FA   0.065000
  2404  H63    0.576    0.167    3.131   Hc   109      2FA   0.000000
  2405  H62    0.176    1.856    2.860   Hc   109      2FA   0.000000
  2406  H61    1.631    1.175    2.146   Hc   109      2FA   0.000000
  2407   O5   -0.176    1.725    0.190   Os   109      2FA  -0.494000
  2408   O4    1.646   -0.740    0.202   Oh   109      2FA  -0.739000
  2409  H4O    1.855   -1.552   -0.277   Ho   109      2FA   0.447000
  2410   O3   -0.084   -2.231   -1.476   Oh   109      2FA  -0.693000
  2411  H3O   -0.757   -2.539   -2.095   Ho   109      2FA   0.426000
  2412   O2   -0.983    0.018   -3.103   Os   109      2FA  -0.545000
  2413   C1   -1.597    0.584    1.204   Cg   110      2FB   0.418000
  2414   H1   -1.296    1.550    1.612   H2   110      2FB   0.000000
  2415   O5   -1.501    0.646   -0.270   Os   110      2FB  -0.442000
  2416   C5   -0.141    0.811   -0.833   Cg   110      2FB   0.106000
  2417   H5    0.292    1.725   -0.423   H1   110      2FB   0.000000
  2418   C6   -0.271    1.005   -2.347   Cg   110      2FB   0.092000
  2419  H63    0.707    1.132   -2.813   Hc   110      2FB   0.000000
  2420  H62   -0.758    0.155   -2.828   Hc   110      2FB   0.000000
  2421  H61   -0.859    1.893   -2.581   Hc   110      2FB   0.000000
  2422   C4    0.731   -0.381   -0.385   Cg   110      2FB   0.229000
  2423   H4    1.751   -0.253   -0.752   H1   110      2FB   0.000000
  2424   O4    0.180   -1.594   -0.944   Oh   110      2FB  -0.659000
  2425  H4O    0.170   -1.529   -1.902   Ho   110      2FB   0.423000
  2426   C3    0.734   -0.470    1.155   Cg   110      2FB   0.255000
  2427   H3    1.241    0.417    1.540   H1   110      2FB   0.000000
  2428   O3    1.490   -1.625    1.563   Oh   110      2FB  -0.676000
  2429  H3O    1.513   -1.669    2.521   Ho   110      2FB   0.427000
  2430   C2   -0.685   -0.536    1.754   Cg   110      2FB   0.346000
  2431   H2   -1.130   -1.513    1.553   H1   110      2FB   0.000000
  2432   O2   -0.572   -0.347    3.176   Os   110      2FB  -0.519000
  2433   C1   -0.980   -0.561    1.837   Cg   111      2GA   0.509000
  2434   H1   -1.889   -0.921    2.318   H2   111      2GA   0.000000
  2435   C2   -0.264   -1.739    1.115   Cg   111      2GA   0.246000
  2436   H2   -1.002   -2.235    0.482   H1   111      2GA   0.000000
  2437   C3    0.886   -1.235    0.218   Cg   111      2GA   0.286000
  2438   H3    1.695   -0.859    0.848   H1   111      2GA   0.000000
  2439   C4    0.423   -0.122   -0.752   Cg   111      2GA   0.254000
  2440   H4   -0.284   -0.539   -1.473   H1   111      2GA   0.000000
  2441   C5   -0.248    1.040    0.008   Cg   111      2GA   0.283000
  2442   H5    0.505    1.516    0.639   H1   111      2GA   0.000000
  2443   C6   -0.837    2.109   -0.941   Cg   111      2GA   0.276000
  2444  H62   -0.124    2.361   -1.726   H1   111      2GA   0.000000
  2445  H61   -1.741    1.727   -1.418   H1   111      2GA   0.000000
  2446   O6   -1.153    3.319   -0.220   Oh   111      2GA  -0.682000
  2447  H6O   -0.351    3.821   -0.062   Ho   111      2GA   0.418000
  2448   O5   -1.332    0.500    0.894   Os   111      2GA  -0.574000
  2449   O4    1.577    0.387   -1.470   Oh   111      2GA  -0.710000
  2450  H4O    2.048   -0.376   -1.834   Ho   111      2GA   0.436000
  2451   O3    1.386   -2.352   -0.563   Oh   111      2GA  -0.699000
  2452  H3O    1.447   -3.114    0.030   Ho   111      2GA   0.427000
  2453   O2    0.239   -2.728    2.071   Os   111      2GA  -0.470000
  2454   C1   -1.571   -0.785    1.136   Cg   112      2GB   0.384000
  2455   H1   -1.176   -0.673    2.147   H2   112      2GB   0.000000
  2456   O5   -1.510    0.508    0.449   Os   112      2GB  -0.471000
  2457   C5   -0.134    1.045    0.218   Cg   112      2GB   0.225000
  2458   H5    0.349    1.178    1.188   H1   112      2GB   0.000000
  2459   C6   -0.232    2.418   -0.475   Cg   112      2GB   0.282000
  2460  H62   -0.701    2.314   -1.454   H1   112      2GB   0.000000
  2461  H61    0.759    2.850   -0.613   H1   112      2GB   0.000000
  2462   O6   -1.023    3.314    0.329   Oh   112      2GB  -0.688000
  2463  H6O   -1.863    2.886    0.520   Ho   112      2GB   0.424000
  2464   C4    0.669    0.021   -0.612   Cg   112      2GB   0.276000
  2465   H4    0.241   -0.049   -1.614   H1   112      2GB   0.000000
  2466   O4    2.039    0.478   -0.722   Oh   112      2GB  -0.714000
  2467  H4O    2.549   -0.232   -1.134   Ho   112      2GB   0.440000
  2468   C3    0.654   -1.377    0.053   Cg   112      2GB   0.284000
  2469   H3    1.213   -1.334    0.990   H1   112      2GB   0.000000
  2470   O3    1.310   -2.324   -0.834   Oh   112      2GB  -0.709000
  2471  H3O    1.219   -3.202   -0.438   Ho   112      2GB   0.432000
  2472   C2   -0.782   -1.866    0.346   Cg   112      2GB   0.310000
  2473   H2   -1.296   -2.069   -0.597   H1   112      2GB   0.000000
  2474   O2   -0.714   -3.101    1.117   Os   112      2GB  -0.475000
  2475   C1   -0.667    1.665   -1.288   Cg   113      2HA   0.394000
  2476   H1   -0.326    2.511   -1.886   H2   113      2HA   0.000000
  2477   C2   -0.307    0.342   -2.019   Cg   113      2HA   0.248000
  2478   H2   -0.933    0.232   -2.905   H1   113      2HA   0.000000
  2479   C3   -0.523   -0.871   -1.086   Cg   113      2HA   0.236000
  2480   H3   -1.592   -0.966   -0.887   H1   113      2HA   0.000000
  2481   C4    0.224   -0.720    0.258   Cg   113      2HA   0.187000
  2482   H4    1.300   -0.716    0.082   H1   113      2HA   0.000000
  2483   C5   -0.197    0.595    0.962   Cg   113      2HA   0.279000
  2484   H5   -1.249    0.523    1.246   H1   113      2HA   0.000000
  2485   C6    0.620    0.915    2.215   Cg   113      2HA   0.023000
  2486  H63    0.513    0.137    2.971   Hc   113      2HA   0.000000
  2487  H62    0.297    1.852    2.671   Hc   113      2HA   0.000000
  2488  H61    1.683    1.009    1.989   Hc   113      2HA   0.000000
  2489   O5   -0.045    1.753    0.044   Os   113      2HA  -0.461000
  2490   O4   -0.109   -1.854    1.108   Oh   113      2HA  -0.644000
  2491  H4O    0.504   -1.905    1.849   Ho   113      2HA   0.405000
  2492   O3   -0.088   -2.085   -1.753   Oh   113      2HA  -0.649000
  2493  H3O   -0.187   -2.804   -1.117   Ho   113      2HA   0.425000
  2494   O2    1.082    0.387   -2.453   Os   113      2HA  -0.443000
  2495   C1   -2.100   -0.429   -0.538   Cg   114      2HB   0.381000
  2496   H1   -1.888   -1.177   -1.304   H2   114      2HB   0.000000
  2497   O5   -1.399   -0.818    0.705   Os   114      2HB  -0.427000
  2498   C5    0.075   -0.949    0.600   Cg   114      2HB   0.172000
  2499   H5    0.290   -1.758   -0.101   H1   114      2HB   0.000000
  2500  C6M    0.589   -1.354    1.982   Cg   114      2HB   0.039000
  2501  H1M    0.123   -2.280    2.323   Hc   114      2HB   0.000000
  2502  H2M    0.383   -0.587    2.730   Hc   114      2HB   0.000000
  2503  H3M    1.667   -1.523    1.973   Hc   114      2HB   0.000000
  2504   C4    0.679    0.368    0.059   Cg   114      2HB   0.388000
  2505   H4    0.652    1.133    0.837   H1   114      2HB   0.000000
  2506   O4    2.046    0.105   -0.301   Oh   114      2HB  -0.728000
  2507  H4O    2.525   -0.206    0.471   Ho   114      2HB   0.432000
  2508   C3   -0.058    0.872   -1.199   Cg   114      2HB   0.182000
  2509   H3    0.142    0.190   -2.028   H1   114      2HB   0.000000
  2510   O3    0.437    2.173   -1.567   Oh   114      2HB  -0.665000
  2511  H3O    1.384    2.124   -1.717   Ho   114      2HB   0.418000
  2512   C2   -1.586    0.948   -1.003   Cg   114      2HB   0.243000
  2513   H2   -2.071    1.236   -1.937   H1   114      2HB   0.000000
  2514   O2   -1.890    1.930    0.014   Os   114      2HB  -0.435000
  2515   O2   -0.086    0.771    2.176   Os   115      2JA  -0.388000
  2516   C2   -0.839    0.325    1.037   Cg   115      2JA   0.114000
  2517   C1   -2.282   -0.005    1.534   Cg   115      2JA   0.410000
  2518  H12   -2.250   -0.839    2.236   H1   115      2JA   0.000000
  2519  H11   -2.712    0.854    2.053   H1   115      2JA   0.000000
  2520   O1   -3.143   -0.358    0.439   Oh   115      2JA  -0.656000
  2521  H1O   -2.569   -0.791   -0.212   Ho   115      2JA   0.405000
  2522   C3   -0.100   -0.901    0.414   Cg   115      2JA   0.271000
  2523   H3    0.059   -1.659    1.183   H1   115      2JA   0.000000
  2524   C4    1.270   -0.485   -0.177   Cg   115      2JA   0.281000
  2525   H4    1.915   -0.142    0.634   H1   115      2JA   0.000000
  2526   C5    1.116    0.658   -1.209   Cg   115      2JA   0.273000
  2527   H5    0.539    0.309   -2.066   H1   115      2JA   0.000000
  2528   C6    0.406    1.868   -0.573   Cg   115      2JA   0.368000
  2529  H6E    0.184    2.614   -1.337   H1   115      2JA   0.000000
  2530  H6A    1.055    2.333    0.170   H1   115      2JA   0.000000
  2531   O6   -0.864    1.466    0.092   Os   115      2JA  -0.504000
  2532   O5    2.428    1.078   -1.672   Oh   115      2JA  -0.699000
  2533  H5O    2.880    0.306   -2.033   Ho   115      2JA   0.419000
  2534   O4    1.909   -1.645   -0.792   Oh   115      2JA  -0.672000
  2535  H4O    2.339   -2.173   -0.109   Ho   115      2JA   0.413000
  2536   O3   -0.911   -1.495   -0.642   Oh   115      2JA  -0.654000
  2537  H3O   -0.343   -2.092   -1.146   Ho   115      2JA   0.425000
  2538   O2   -2.728   -0.111    0.760   Os   116      2JB  -0.388000
  2539   C2   -1.312    0.053    0.627   Cg   116      2JB   0.413000
  2540   O6   -1.108    1.299   -0.153   Os   116      2JB  -0.551000
  2541   C6    0.284    1.625   -0.552   Cg   116      2JB   0.292000
  2542  H6E    0.273    2.511   -1.187   H1   116      2JB   0.000000
  2543  H6A    0.859    1.862    0.344   H1   116      2JB   0.000000
  2544   C5    0.938    0.443   -1.305   Cg   116      2JB   0.374000
  2545   H5    0.487    0.359   -2.295   H1   116      2JB   0.000000
  2546   O5    2.362    0.701   -1.462   Oh   116      2JB  -0.729000
  2547  H5O    2.770    0.913   -0.617   Ho   116      2JB   0.426000
  2548   C4    0.765   -0.895   -0.542   Cg   116      2JB   0.155000
  2549   H4    1.349   -0.845    0.377   H1   116      2JB   0.000000
  2550   O4    1.290   -2.011   -1.322   Oh   116      2JB  -0.684000
  2551  H4O    2.152   -1.766   -1.688   Ho   116      2JB   0.438000
  2552   C3   -0.716   -1.162   -0.167   Cg   116      2JB   0.363000
  2553   H3   -0.782   -2.067    0.439   H1   116      2JB   0.000000
  2554   O3   -1.447   -1.388   -1.412   Oh   116      2JB  -0.725000
  2555  H3O   -0.947   -2.049   -1.909   Ho   116      2JB   0.432000
  2556   C1   -0.724    0.150    2.074   Cg   116      2JB   0.280000
  2557  H12   -1.098   -0.676    2.681   H1   116      2JB   0.000000
  2558  H11    0.361    0.068    2.050   H1   116      2JB   0.000000
  2559   O1   -1.054    1.393    2.730   Oh   116      2JB  -0.722000
  2560  H1O   -1.976    1.595    2.530   Ho   116      2JB   0.432000
  2561   C1   -1.007    0.928    1.542   Cg   117      2KA   0.473000
  2562   H1   -1.941    0.953    2.104   H2   117      2KA   0.000000
  2563   C2   -0.147   -0.250    2.049   Cg   117      2KA   0.281000
  2564   H2   -0.797   -1.126    2.050   H1   117      2KA   0.000000
  2565   C3    1.072   -0.601    1.169   Cg   117      2KA   0.354000
  2566   H3    1.523   -1.532    1.516   H1   117      2KA   0.000000
  2567   C4    0.671   -0.726   -0.314   Cg   117      2KA   0.196000
  2568   H4    1.566   -0.812   -0.931   H1   117      2KA   0.000000
  2569   C5   -0.184    0.466   -0.813   Cg   117      2KA   0.301000
  2570   H5    0.452    1.354   -0.793   H1   117      2KA   0.000000
  2571   C6   -0.728    0.317   -2.241   Cg   117      2KA   0.287000
  2572  H62    0.083    0.085   -2.931   H1   117      2KA   0.000000
  2573  H61   -1.468   -0.483   -2.293   H1   117      2KA   0.000000
  2574   O6   -1.336    1.554   -2.637   Oh   117      2KA  -0.691000
  2575  H6O   -0.683    2.257   -2.604   Ho   117      2KA   0.422000
  2576   O5   -1.326    0.695    0.115   Os   117      2KA  -0.540000
  2577   O4   -0.084   -1.944   -0.454   Oh   117      2KA  -0.712000
  2578  H4O   -0.331   -2.064   -1.373   Ho   117      2KA   0.420000
  2579   O3    2.065    0.437    1.256   Oh   117      2KA  -0.744000
  2580  H3O    2.348    0.533    2.168   Ho   117      2KA   0.436000
  2581   O2    0.252   -0.039    3.416   Os   117      2KA  -0.483000
  2582   C1   -1.508   -0.706    1.146   Cg   118      2KB   0.449000
  2583   H1   -1.114   -0.556    2.152   H2   118      2KB   0.000000
  2584   O5   -1.417    0.546    0.391   Os   118      2KB  -0.514000
  2585   C5   -0.022    1.004    0.089   Cg   118      2KB   0.303000
  2586   H5    0.480    1.200    1.039   H1   118      2KB   0.000000
  2587   C6   -0.076    2.332   -0.692   Cg   118      2KB   0.259000
  2588  H62   -0.643    2.210   -1.615   H1   118      2KB   0.000000
  2589  H61    0.932    2.656   -0.950   H1   118      2KB   0.000000
  2590   O6   -0.700    3.355    0.108   Oh   118      2KB  -0.670000
  2591  H6O   -1.580    3.052    0.352   Ho   118      2KB   0.416000
  2592   C4    0.777   -0.104   -0.650   Cg   118      2KB   0.217000
  2593   H4    1.819    0.208   -0.731   H1   118      2KB   0.000000
  2594   O4    0.268   -0.299   -1.999   Oh   118      2KB  -0.700000
  2595  H4O    0.910   -0.780   -2.534   Ho   118      2KB   0.425000
  2596   C3    0.700   -1.447    0.110   Cg   118      2KB   0.253000
  2597   H3    1.177   -2.227   -0.485   H1   118      2KB   0.000000
  2598   O3    1.450   -1.306    1.346   Oh   118      2KB  -0.710000
  2599  H3O    1.334   -2.126    1.847   Ho   118      2KB   0.442000
  2600   C2   -0.760   -1.858    0.413   Cg   118      2KB   0.308000
  2601   H2   -1.265   -2.062   -0.533   H1   118      2KB   0.000000
  2602   O2   -0.762   -3.092    1.197   Os   118      2KB  -0.478000
  2603   C1   -1.051    0.995    1.495   Cg   119      2LA   0.465000
  2604   H1   -2.002    1.007    2.027   H2   119      2LA   0.000000
  2605   C2   -0.187   -0.170    2.032   Cg   119      2LA   0.339000
  2606   H2   -0.805   -1.070    2.045   H1   119      2LA   0.000000
  2607   C3    1.058   -0.429    1.161   Cg   119      2LA   0.253000
  2608   H3    1.735    0.422    1.242   H1   119      2LA   0.000000
  2609   C4    0.686   -0.622   -0.325   Cg   119      2LA   0.204000
  2610   H4    1.593   -0.723   -0.922   H1   119      2LA   0.000000
  2611   C5   -0.140    0.579   -0.834   Cg   119      2LA   0.216000
  2612   H5    0.493    1.466   -0.765   H1   119      2LA   0.000000
  2613   C6   -0.625    0.463   -2.285   Cg   119      2LA   0.308000
  2614  H62    0.214    0.249   -2.947   H1   119      2LA   0.000000
  2615  H61   -1.360   -0.338   -2.388   H1   119      2LA   0.000000
  2616   O6   -1.221    1.707   -2.676   Oh   119      2LA  -0.684000
  2617  H6O   -0.573    2.410   -2.599   Ho   119      2LA   0.418000
  2618   O5   -1.321    0.776    0.054   Os   119      2LA  -0.527000
  2619   O4   -0.109   -1.819   -0.479   Oh   119      2LA  -0.673000
  2620  H4O   -0.340   -1.933   -1.403   Ho   119      2LA   0.436000
  2621   O3    1.753   -1.600    1.630   Oh   119      2LA  -0.701000
  2622  H3O    1.995   -1.481    2.551   Ho   119      2LA   0.433000
  2623   O2    0.208    0.112    3.387   Os   119      2LA  -0.487000
  2624   C1   -1.480   -0.736    1.209   Cg   120      2LB   0.374000
  2625   H1   -1.087   -0.628    2.221   H2   120      2LB   0.000000
  2626   O5   -1.403    0.565    0.531   Os   120      2LB  -0.402000
  2627   C5   -0.027    1.074    0.243   Cg   120      2LB   0.140000
  2628   H5    0.489    1.209    1.196   H1   120      2LB   0.000000
  2629   C6   -0.113    2.445   -0.449   Cg   120      2LB   0.319000
  2630  H62   -0.705    2.382   -1.364   H1   120      2LB   0.000000
  2631  H61    0.884    2.804   -0.706   H1   120      2LB   0.000000
  2632   O6   -0.729    3.385    0.447   Oh   120      2LB  -0.693000
  2633  H6O   -1.598    3.045    0.678   Ho   120      2LB   0.419000
  2634   C4    0.766    0.029   -0.574   Cg   120      2LB   0.203000
  2635   H4    1.798    0.365   -0.684   H1   120      2LB   0.000000
  2636   O4    0.183   -0.100   -1.894   Oh   120      2LB  -0.664000
  2637  H4O    0.630   -0.837   -2.332   Ho   120      2LB   0.437000
  2638   C3    0.748   -1.343    0.138   Cg   120      2LB   0.259000
  2639   H3    1.284   -1.241    1.085   H1   120      2LB   0.000000
  2640   O3    1.467   -2.311   -0.675   Oh   120      2LB  -0.694000
  2641  H3O    1.399   -3.169   -0.233   Ho   120      2LB   0.433000
  2642   C2   -0.690   -1.832    0.433   Cg   120      2LB   0.357000
  2643   H2   -1.201   -2.058   -0.505   H1   120      2LB   0.000000
  2644   O2   -0.615   -3.049    1.233   Os   120      2LB  -0.488000
  2645   C1   -1.148   -0.537    1.771   Cg   121      2MA   0.433000
  2646   H1   -2.113   -0.854    2.166   H2   121      2MA   0.000000
  2647   C2   -0.442   -1.744    1.089   Cg   121      2MA   0.245000
  2648   H2   -0.138   -2.463    1.851   H1   121      2MA   0.000000
  2649   C3    0.805   -1.273    0.308   Cg   121      2MA   0.252000
  2650   H3    1.532   -0.878    1.020   H1   121      2MA   0.000000
  2651   C4    0.453   -0.160   -0.710   Cg   121      2MA   0.326000
  2652   H4   -0.219   -0.554   -1.474   H1   121      2MA   0.000000
  2653   C5   -0.209    1.041    0.004   Cg   121      2MA   0.276000
  2654   H5    0.530    1.494    0.668   H1   121      2MA   0.000000
  2655   C6   -0.696    2.115   -0.993   Cg   121      2MA   0.266000
  2656  H62    0.078    2.333   -1.730   H1   121      2MA   0.000000
  2657  H61   -1.577    1.757   -1.528   H1   121      2MA   0.000000
  2658   O6   -1.021    3.345   -0.310   Oh   121      2MA  -0.688000
  2659  H6O   -0.216    3.783   -0.024   Ho   121      2MA   0.422000
  2660   O5   -1.362    0.580    0.840   Os   121      2MA  -0.507000
  2661   O4    1.676    0.292   -1.349   Oh   121      2MA  -0.733000
  2662  H4O    2.123   -0.491   -1.698   Ho   121      2MA   0.438000
  2663   O3    1.422   -2.414   -0.364   Oh   121      2MA  -0.696000
  2664  H3O    1.889   -2.957    0.281   Ho   121      2MA   0.431000
  2665   O2   -1.367   -2.416    0.182   Os   121      2MA  -0.465000
  2666   C1   -1.618   -0.789    1.214   Cg   122      2MB   0.314000
  2667   H1   -1.136   -0.746    2.192   H2   122      2MB   0.000000
  2668   O5   -1.510    0.531    0.577   Os   122      2MB  -0.393000
  2669   C5   -0.121    0.990    0.254   Cg   122      2MB   0.206000
  2670   H5    0.403    1.157    1.197   H1   122      2MB   0.000000
  2671   C6   -0.200    2.326   -0.507   Cg   122      2MB   0.273000
  2672  H62   -0.722    2.190   -1.455   H1   122      2MB   0.000000
  2673  H61    0.799    2.706   -0.717   H1   122      2MB   0.000000
  2674   O6   -0.909    3.297    0.284   Oh   122      2MB  -0.680000
  2675  H6O   -1.773    2.936    0.506   Ho   122      2MB   0.419000
  2676   C4    0.643   -0.090   -0.554   Cg   122      2MB   0.349000
  2677   H4    0.234   -0.155   -1.563   H1   122      2MB   0.000000
  2678   O4    2.037    0.307   -0.644   Oh   122      2MB  -0.746000
  2679  H4O    2.439   -0.161   -1.384   Ho   122      2MB   0.443000
  2680   C3    0.538   -1.470    0.151   Cg   122      2MB   0.263000
  2681   H3    0.987   -1.389    1.143   H1   122      2MB   0.000000
  2682   O3    1.274   -2.505   -0.562   Oh   122      2MB  -0.692000
  2683  H3O    2.206   -2.456   -0.331   Ho   122      2MB   0.430000
  2684   C2   -0.944   -1.877    0.332   Cg   122      2MB   0.241000
  2685   H2   -1.007   -2.847    0.828   H1   122      2MB   0.000000
  2686   O2   -1.620   -1.956   -0.958   Os   122      2MB  -0.427000
  2687   C1   -1.107    0.955    1.586   Cg   123      2NA   0.478000
  2688   H1   -2.054    1.049    2.119   H2   123      2NA   0.000000
  2689   C2   -0.371   -0.305    2.091   Cg   123      2NA   0.228000
  2690   H2   -1.087   -1.126    2.040   H1   123      2NA   0.000000
  2691   C3    0.851   -0.726    1.251   Cg   123      2NA   0.330000
  2692   H3    1.234   -1.685    1.604   H1   123      2NA   0.000000
  2693   C4    0.417   -0.842   -0.225   Cg   123      2NA   0.167000
  2694   H4   -0.280   -1.678   -0.307   H1   123      2NA   0.000000
  2695   C5   -0.277    0.427   -0.769   Cg   123      2NA   0.404000
  2696   H5    0.441    1.250   -0.778   H1   123      2NA   0.000000
  2697   C6   -0.861    0.257   -2.178   Cg   123      2NA   0.280000
  2698  H62   -0.087   -0.062   -2.877   H1   123      2NA   0.000000
  2699  H61   -1.655   -0.492   -2.178   H1   123      2NA   0.000000
  2700   O6   -1.391    1.514   -2.620   Oh   123      2NA  -0.663000
  2701  H6O   -0.690    2.169   -2.635   Ho   123      2NA   0.396000
  2702   O5   -1.397    0.784    0.144   Os   123      2NA  -0.611000
  2703   O4    1.567   -1.149   -1.034   Oh   123      2NA  -0.733000
  2704  H4O    2.194   -0.425   -0.985   Ho   123      2NA   0.444000
  2705   O3    1.892    0.268    1.378   Oh   123      2NA  -0.714000
  2706  H3O    2.671   -0.022    0.898   Ho   123      2NA   0.441000
  2707   O2   -0.010   -0.162    3.477   Os   123      2NA  -0.447000
  2708   C1   -1.581   -0.776    1.037   Cg   124      2NB   0.422000
  2709   H1   -1.180   -0.655    2.046   H2   124      2NB   0.000000
  2710   O5   -1.487    0.503    0.319   Os   124      2NB  -0.507000
  2711   C5   -0.100    0.970   -0.007   Cg   124      2NB   0.198000
  2712   H5    0.438    1.132    0.928   H1   124      2NB   0.000000
  2713   C6   -0.171    2.312   -0.761   Cg   124      2NB   0.313000
  2714  H62   -0.701    2.188   -1.705   H1   124      2NB   0.000000
  2715  H61    0.829    2.690   -0.971   H1   124      2NB   0.000000
  2716   O6   -0.872    3.272    0.049   Oh   124      2NB  -0.689000
  2717  H6O   -1.673    2.851    0.374   Ho   124      2NB   0.418000
  2718   C4    0.614   -0.136   -0.820   Cg   124      2NB   0.286000
  2719   H4    0.084   -0.270   -1.765   H1   124      2NB   0.000000
  2720   O4    1.974    0.252   -1.126   Oh   124      2NB  -0.707000
  2721  H4O    2.527    0.024   -0.368   Ho   124      2NB   0.430000
  2722   C3    0.616   -1.481   -0.058   Cg   124      2NB   0.234000
  2723   H3    1.091   -2.250   -0.671   H1   124      2NB   0.000000
  2724   O3    1.374   -1.343    1.180   Oh   124      2NB  -0.615000
  2725  H3O    1.212   -2.136    1.710   Ho   124      2NB   0.389000
  2726   C2   -0.833   -1.905    0.266   Cg   124      2NB   0.301000
  2727   H2   -1.353   -2.093   -0.677   H1   124      2NB   0.000000
  2728   O2   -0.809   -3.151    1.022   Os   124      2NB  -0.473000
  2729   C1   -0.833   -0.237    1.854   Cg   125      2OA   0.305000
  2730   H1   -1.754   -0.577    2.328   H2   125      2OA   0.000000
  2731   C2   -0.181   -1.430    1.083   Cg   125      2OA   0.413000
  2732   H2   -0.945   -1.922    0.480   H1   125      2OA   0.000000
  2733   C3    0.961   -0.935    0.162   Cg   125      2OA   0.251000
  2734   H3    1.733   -0.484    0.789   H1   125      2OA   0.000000
  2735   C4    0.434    0.155   -0.808   Cg   125      2OA   0.267000
  2736   H4    1.242    0.476   -1.467   H1   125      2OA   0.000000
  2737   C5   -0.086    1.361   -0.004   Cg   125      2OA   0.054000
  2738   H5    0.737    1.773    0.584   H1   125      2OA   0.000000
  2739   C6   -0.511    2.445   -1.050    C   125      2OA   0.896000
  2740  O6A    0.277    3.403   -1.215   O2   125      2OA  -0.822000
  2741  O6B   -1.555    2.226   -1.713   O2   125      2OA  -0.822000
  2742   O5   -1.154    0.888    0.962   Os   125      2OA  -0.424000
  2743   O4   -0.667   -0.338   -1.621   Oh   125      2OA  -0.704000
  2744  H4O   -1.194    0.446   -1.885   Ho   125      2OA   0.429000
  2745   O3    1.593   -2.039   -0.553   Oh   125      2OA  -0.725000
  2746  H3O    1.568   -2.808    0.027   Ho   125      2OA   0.416000
  2747   O2    0.333   -2.404    2.047   Os   125      2OA  -0.534000
  2748   C1   -1.642   -0.464    1.299   Cg   126      2OB   0.301000
  2749   H1   -1.232   -0.367    2.305   H2   126      2OB   0.000000
  2750   O5   -1.555    0.833    0.631   Os   126      2OB  -0.414000
  2751   C5   -0.172    1.315    0.282   Cg   126      2OB   0.049000
  2752   H5    0.379    1.379    1.223   H1   126      2OB   0.000000
  2753   C6   -0.015    2.741   -0.366    C   126      2OB   0.838000
  2754  O6B    1.147    3.070   -0.711   O2   126      2OB  -0.794000
  2755  O6A   -1.015    3.498   -0.405   O2   126      2OB  -0.794000
  2756   C4    0.531    0.256   -0.584   Cg   126      2OB   0.260000
  2757   H4    1.563    0.557   -0.773   H1   126      2OB   0.000000
  2758   O4   -0.154    0.134   -1.856   Oh   126      2OB  -0.661000
  2759  H4O    0.246   -0.599   -2.331   Ho   126      2OB   0.402000
  2760   C3    0.543   -1.118    0.128   Cg   126      2OB   0.259000
  2761   H3    1.127   -1.019    1.045   H1   126      2OB   0.000000
  2762   O3    1.232   -2.086   -0.731   Oh   126      2OB  -0.708000
  2763  H3O    2.181   -1.963   -0.644   Ho   126      2OB   0.404000
  2764   C2   -0.889   -1.580    0.512   Cg   126      2OB   0.383000
  2765   H2   -1.446   -1.829   -0.392   H1   126      2OB   0.000000
  2766   O2   -0.828   -2.760    1.369   Os   126      2OB  -0.525000
  2767   O2   -0.378    1.962    0.816   Os   127      2PA  -0.388000
  2768   C2   -0.936    0.716    0.353   Cg   127      2PA   0.417000
  2769   C1   -2.388    0.706    0.867   Cg   127      2PA   0.327000
  2770  H12   -2.410    0.738    1.957   H1   127      2PA   0.000000
  2771  H11   -2.931    1.574    0.491   H1   127      2PA   0.000000
  2772   O1   -3.061   -0.484    0.426   Oh   127      2PA  -0.644000
  2773  H1O   -2.603   -1.255    0.767   Ho   127      2PA   0.393000
  2774   C3   -0.057   -0.474    0.843   Cg   127      2PA   0.150000
  2775   H3   -0.602   -1.391    0.617   H1   127      2PA   0.000000
  2776   C4    1.314   -0.609    0.148   Cg   127      2PA   0.394000
  2777   H4    1.800   -1.536    0.456   H1   127      2PA   0.000000
  2778   C5    1.092   -0.612   -1.377   Cg   127      2PA   0.153000
  2779   H5    0.537   -1.513   -1.643   H1   127      2PA   0.000000
  2780   C6    0.301    0.607   -1.875   Cg   127      2PA   0.393000
  2781  H6E    0.092    0.515   -2.940   H1   127      2PA   0.000000
  2782  H6A    0.867    1.526   -1.717   H1   127      2PA   0.000000
  2783   O6   -0.980    0.689   -1.134   Os   127      2PA  -0.598000
  2784   O5    2.355   -0.658   -2.060   Oh   127      2PA  -0.693000
  2785  H5O    2.847   -1.431   -1.773   Ho   127      2PA   0.428000
  2786   O4    2.159    0.505    0.515   Oh   127      2PA  -0.702000
  2787  H4O    2.284    0.510    1.467   Ho   127      2PA   0.432000
  2788   O3    0.113   -0.442    2.273   Oh   127      2PA  -0.665000
  2789  H3O    0.585    0.356    2.521   Ho   127      2PA   0.409000
  2790   O2   -2.682   -0.280    0.223   Os   128      2PB  -0.388000
  2791   C2   -1.285    0.009    0.288   Cg   128      2PB   0.407000
  2792   O6   -1.117    1.262   -0.478   Os   128      2PB  -0.540000
  2793   C6    0.270    1.679   -0.800   Cg   128      2PB   0.364000
  2794  H6E    0.238    2.604   -1.376   H1   128      2PB   0.000000
  2795  H6A    0.817    1.872    0.124   H1   128      2PB   0.000000
  2796   C5    0.949    0.567   -1.621   Cg   128      2PB   0.188000
  2797   H5    0.412    0.467   -2.565   H1   128      2PB   0.000000
  2798   O5    2.324    0.925   -1.929   Oh   128      2PB  -0.705000
  2799  H5O    2.883    0.658   -1.186   Ho   128      2PB   0.433000
  2800   C4    0.894   -0.788   -0.878   Cg   128      2PB   0.328000
  2801   H4    1.282   -1.570   -1.532   H1   128      2PB   0.000000
  2802   O4    1.737   -0.729    0.305   Oh   128      2PB  -0.698000
  2803  H4O    1.646   -1.587    0.741   Ho   128      2PB   0.427000
  2804   C3   -0.551   -1.150   -0.459   Cg   128      2PB   0.180000
  2805   H3   -1.095   -1.350   -1.385   H1   128      2PB   0.000000
  2806   O3   -0.556   -2.393    0.312   Oh   128      2PB  -0.681000
  2807  H3O   -1.469   -2.699    0.390   Ho   128      2PB   0.422000
  2808   C1   -0.889    0.187    1.799   Cg   128      2PB   0.379000
  2809  H12   -1.117   -0.723    2.355   H1   128      2PB   0.000000
  2810  H11    0.180    0.370    1.891   H1   128      2PB   0.000000
  2811   O1   -1.579    1.297    2.432   Oh   128      2PB  -0.720000
  2812  H1O   -1.290    1.373    3.346   Ho   128      2PB   0.410000
  2813   C1   -0.784    1.588   -1.292   Cg   129      2QA   0.465000
  2814   H1   -0.548    2.434   -1.937   H1   129      2QA   0.000000
  2815   C2   -0.397    0.260   -2.005   Cg   129      2QA   0.281000
  2816   H2    0.644    0.344   -2.321   H1   129      2QA   0.000000
  2817   C3   -0.517   -0.941   -1.033   Cg   129      2QA   0.312000
  2818   H3   -1.571   -1.122   -0.813   H1   129      2QA   0.000000
  2819   C4    0.254   -0.701    0.289   Cg   129      2QA   0.208000
  2820   H4    1.326   -0.687    0.081   H1   129      2QA   0.000000
  2821   C5   -0.148    0.635    0.956   Cg   129      2QA   0.234000
  2822   H5   -1.183    0.564    1.295   H1   129      2QA   0.000000
  2823   C6    0.724    1.023    2.152   Cg   129      2QA   0.060000
  2824  H63    1.775    1.118    1.872   Hc   129      2QA   0.000000
  2825  H62    0.662    0.282    2.950   Hc   129      2QA   0.000000
  2826  H61    0.411    1.978    2.577   Hc   129      2QA   0.000000
  2827   O5   -0.055    1.745   -0.029   Os   129      2QA  -0.559000
  2828   O4   -0.027   -1.792    1.212   Oh   129      2QA  -0.664000
  2829  H4O    0.643   -1.828    1.902   Ho   129      2QA   0.403000
  2830   O3    0.040   -2.134   -1.644   Oh   129      2QA  -0.697000
  2831  H3O   -0.035   -2.849   -1.005   Ho   129      2QA   0.424000
  2832   O2   -1.213    0.083   -3.208   Os   129      2QA  -0.467000
  2833   C1   -1.581   -0.518    1.314   Cg   130      2QB   0.391000
  2834   H1   -1.113   -0.342    2.284   H1   130      2QB   0.000000
  2835   O5   -1.554    0.713    0.527   Os   130      2QB  -0.535000
  2836   C5   -0.201    1.216    0.178   Cg   130      2QB   0.271000
  2837   H5    0.336    1.431    1.104   H1   130      2QB   0.000000
  2838   C6   -0.389    2.526   -0.589   Cg   130      2QB   0.048000
  2839  H63   -0.928    2.372   -1.525   Hc   130      2QB   0.000000
  2840  H62    0.569    2.988   -0.834   Hc   130      2QB   0.000000
  2841  H61   -0.954    3.251   -0.001   Hc   130      2QB   0.000000
  2842   C4    0.563    0.126   -0.613   Cg   130      2QB   0.250000
  2843   H4    0.097   -0.000   -1.593   H1   130      2QB   0.000000
  2844   O4    1.936    0.556   -0.799   Oh   130      2QB  -0.713000
  2845  H4O    2.416   -0.167   -1.225   Ho   130      2QB   0.421000
  2846   C3    0.552   -1.229    0.138   Cg   130      2QB   0.300000
  2847   H3    1.167   -1.142    1.036   H1   130      2QB   0.000000
  2848   O3    1.136   -2.245   -0.723   Oh   130      2QB  -0.689000
  2849  H3O    1.051   -3.093   -0.268   Ho   130      2QB   0.420000
  2850   C2   -0.872   -1.669    0.547   Cg   130      2QB   0.323000
  2851   H2   -1.448   -1.915   -0.347   H1   130      2QB   0.000000
  2852   O2   -0.782   -2.859    1.389   Os   130      2QB  -0.487000
  2853   C1   -1.612    0.909    0.770   Cg   131      2RA   0.488000
  2854   H1   -2.646    0.859    1.110   H2   131      2RA   0.000000
  2855   C2   -0.851   -0.329    1.300   Cg   131      2RA   0.253000
  2856   H2   -1.455   -1.200    1.041   H1   131      2RA   0.000000
  2857   C3    0.544   -0.555    0.683   Cg   131      2RA   0.345000
  2858   H3    0.952   -1.510    1.018   H1   131      2RA   0.000000
  2859   C4    0.403   -0.548   -0.852   Cg   131      2RA   0.122000
  2860   H4   -0.184   -1.419   -1.148   H1   131      2RA   0.000000
  2861   C5   -0.296    0.710   -1.393   Cg   131      2RA   0.377000
  2862  H5E   -0.462    0.620   -2.466   H1   131      2RA   0.000000
  2863  H5A    0.314    1.597   -1.215   H1   131      2RA   0.000000
  2864   O5   -1.604    0.873   -0.713   Os   131      2RA  -0.561000
  2865   O4    1.696   -0.661   -1.468   Oh   131      2RA  -0.663000
  2866  H4O    2.227    0.106   -1.239   Ho   131      2RA   0.419000
  2867   O3    1.436    0.505    1.097   Oh   131      2RA  -0.737000
  2868  H3O    2.311    0.344    0.737   Ho   131      2RA   0.443000
  2869   O2   -0.772   -0.301    2.737   Os   131      2RA  -0.486000
  2870   C1   -1.833   -0.228    0.875   Cg   132      2RB   0.481000
  2871   H1   -1.505   -0.153    1.911   H2   132      2RB   0.000000
  2872   O5   -1.721    1.083    0.219   Os   132      2RB  -0.576000
  2873   C5   -0.332    1.572    0.005   Cg   132      2RB   0.335000
  2874  H5E   -0.368    2.501   -0.563   H1   132      2RB   0.000000
  2875  H5A    0.126    1.786    0.972   H1   132      2RB   0.000000
  2876   C4    0.489    0.509   -0.767   Cg   132      2RB   0.236000
  2877   H4    0.053    0.391   -1.760   H1   132      2RB   0.000000
  2878   O4    1.862    0.953   -0.937   Oh   132      2RB  -0.695000
  2879  H4O    2.306    0.418   -1.604   Ho   132      2RB   0.411000
  2880   C3    0.452   -0.855   -0.036   Cg   132      2RB   0.203000
  2881   H3    1.018   -1.593   -0.607   H1   132      2RB   0.000000
  2882   O3    1.070   -0.698    1.278   Oh   132      2RB  -0.696000
  2883  H3O    1.964   -0.355    1.165   Ho   132      2RB   0.428000
  2884   C2   -1.025   -1.310    0.088   Cg   132      2RB   0.385000
  2885   H2   -1.442   -1.381   -0.919   H1   132      2RB   0.000000
  2886   O2   -1.115   -2.640    0.680   Os   132      2RB  -0.512000
  2887   C1   -1.044    0.994    1.517   Cg   133      2TA   0.456000
  2888   H1   -2.007    1.007    2.030   H2   133      2TA   0.000000
  2889   C2   -0.182   -0.154    2.079   Cg   133      2TA   0.245000
  2890   H2    0.170    0.098    3.081   H1   133      2TA   0.000000
  2891   C3    1.023   -0.474    1.167   Cg   133      2TA   0.124000
  2892   H3    1.707    0.373    1.243   H1   133      2TA   0.000000
  2893   C4    0.681   -0.636   -0.329   Cg   133      2TA   0.434000
  2894   H4    1.601   -0.729   -0.907   H1   133      2TA   0.000000
  2895   C5   -0.114    0.594   -0.818   Cg   133      2TA   0.157000
  2896   H5    0.541    1.464   -0.729   H1   133      2TA   0.000000
  2897   C6   -0.593    0.516   -2.274   Cg   133      2TA   0.304000
  2898  H62    0.244    0.290   -2.935   H1   133      2TA   0.000000
  2899  H61   -1.349   -0.261   -2.394   H1   133      2TA   0.000000
  2900   O6   -1.151    1.783   -2.647   Oh   133      2TA  -0.669000
  2901  H6O   -0.483    2.467   -2.555   Ho   133      2TA   0.401000
  2902   O5   -1.293    0.808    0.064   Os   133      2TA  -0.480000
  2903   O4   -0.114   -1.823   -0.534   Oh   133      2TA  -0.731000
  2904  H4O   -0.318   -1.913   -1.467   Ho   133      2TA   0.417000
  2905   O3    1.740   -1.623    1.653   Oh   133      2TA  -0.687000
  2906  H3O    1.989   -1.481    2.569   Ho   133      2TA   0.442000
  2907   O2   -1.048   -1.299    2.186   Os   133      2TA  -0.413000
  2908   C1   -1.629    0.213    1.301   Cg   134      2TB   0.306000
  2909   H1   -1.384    1.162    1.779   H2   134      2TB   0.000000
  2910   O5   -1.458    0.372   -0.162   Os   134      2TB  -0.354000
  2911   C5   -0.098    0.795   -0.589   Cg   134      2TB   0.031000
  2912   H5    0.141    1.733   -0.084   H1   134      2TB   0.000000
  2913   C6   -0.115    1.070   -2.099   Cg   134      2TB   0.349000
  2914  H62   -0.464    0.195   -2.650   H1   134      2TB   0.000000
  2915  H61    0.886    1.322   -2.449   H1   134      2TB   0.000000
  2916   O6   -0.992    2.175   -2.358   Oh   134      2TB  -0.666000
  2917  H6O   -1.875    1.961   -2.048   Ho   134      2TB   0.406000
  2918   C4    0.938   -0.257   -0.125   Cg   134      2TB   0.314000
  2919   H4    1.945    0.116   -0.314   H1   134      2TB   0.000000
  2920   O4    0.748   -1.468   -0.885   Oh   134      2TB  -0.626000
  2921  H4O    0.860   -1.280   -1.820   Ho   134      2TB   0.413000
  2922   C3    0.767   -0.544    1.386   Cg   134      2TB   0.174000
  2923   H3    1.052    0.368    1.913   H1   134      2TB   0.000000
  2924   O3    1.683   -1.568    1.816   Oh   134      2TB  -0.678000
  2925  H3O    1.467   -2.393    1.375   Ho   134      2TB   0.425000
  2926   C2   -0.675   -0.882    1.825   Cg   134      2TB   0.340000
  2927   H2   -0.730   -0.934    2.914   H1   134      2TB   0.000000
  2928   O2   -1.067   -2.158    1.274   Os   134      2TB  -0.434000
  2929   C1   -2.075    0.377    0.221   Cg   135      2UA   0.363000
  2930   H1   -2.050    1.267   -0.407   H2   135      2UA   0.000000
  2931   C2   -1.605   -0.877   -0.577   Cg   135      2UA   0.259000
  2932   H2   -1.882   -1.772   -0.017   H1   135      2UA   0.000000
  2933   C3   -0.061   -0.859   -0.763   Cg   135      2UA   0.417000
  2934   H3    0.196   -0.099   -1.503   H1   135      2UA   0.000000
  2935   C4    0.716   -0.558    0.545   Cg   135      2UA   0.223000
  2936   H4    0.526   -1.367    1.255   H1   135      2UA   0.000000
  2937   C5    0.221    0.761    1.170   Cg   135      2UA   0.232000
  2938   H5    0.690    0.856    2.150   H1   135      2UA   0.000000
  2939   C6    0.721    2.019    0.334    C   135      2UA   0.697000
  2940  O6A   -0.136    2.826   -0.093   O2   135      2UA  -0.757000
  2941  O6B    1.951    2.099    0.102   O2   135      2UA  -0.757000
  2942   O5   -1.253    0.600    1.413   Os   135      2UA  -0.515000
  2943   O4    2.155   -0.510    0.299   Oh   135      2UA  -0.711000
  2944  H4O    2.396    0.431    0.139   Ho   135      2UA   0.397000
  2945   O3    0.405   -2.147   -1.253   Oh   135      2UA  -0.771000
  2946  H3O    1.363   -2.134   -1.132   Ho   135      2UA   0.417000
  2947   O2   -2.277   -0.915   -1.883   Os   135      2UA  -0.494000
  2948   C1    0.209    0.463    2.039   Cg   136      2UB   0.278000
  2949   H1    0.750    0.760    2.937   H2   136      2UB   0.000000
  2950   O5    0.246    1.581    1.073   Os   136      2UB  -0.430000
  2951   C5   -0.308    1.337   -0.312   Cg   136      2UB   0.194000
  2952   H5   -0.022    2.198   -0.918   H1   136      2UB   0.000000
  2953   C6   -1.880    1.241   -0.449    C   136      2UB   0.750000
  2954  O6B   -2.350    0.938   -1.573   O2   136      2UB  -0.783000
  2955  O6A   -2.564    1.442    0.580   O2   136      2UB  -0.783000
  2956   C4    0.393    0.098   -0.915   Cg   136      2UB   0.308000
  2957   H4    1.447    0.349   -1.050   H1   136      2UB   0.000000
  2958   O4   -0.141   -0.238   -2.226   Oh   136      2UB  -0.745000
  2959  H4O   -1.076    0.079   -2.245   Ho   136      2UB   0.422000
  2960   C3    0.314   -1.132    0.029   Cg   136      2UB   0.286000
  2961   H3   -0.724   -1.447    0.143   H1   136      2UB   0.000000
  2962   O3    1.078   -2.230   -0.557   Oh   136      2UB  -0.755000
  2963  H3O    0.834   -2.243   -1.494   Ho   136      2UB   0.421000
  2964   C2    0.917   -0.771    1.405   Cg   136      2UB   0.289000
  2965   H2    1.961   -0.496    1.249   H1   136      2UB   0.000000
  2966   O2    0.915   -1.929    2.285   Os   136      2UB  -0.452000
  2967   C1   -0.729    1.677   -0.828   Cg   137      2XA   0.482000
  2968   H1   -0.578    2.460   -1.572   H2   137      2XA   0.000000
  2969   C2   -0.282    0.309   -1.409   Cg   137      2XA   0.197000
  2970   H2    0.731    0.429   -1.796   H1   137      2XA   0.000000
  2971   C3   -0.262   -0.781   -0.317   Cg   137      2XA   0.359000
  2972   H3   -1.286   -1.007   -0.012   H1   137      2XA   0.000000
  2973   C4    0.568   -0.357    0.918   Cg   137      2XA   0.247000
  2974   H4    1.619   -0.269    0.640   H1   137      2XA   0.000000
  2975   C5    0.079    0.998    1.460   Cg   137      2XA   0.335000
  2976  H5E    0.750    1.349    2.244   H1   137      2XA   0.000000
  2977  H5A   -0.916    0.892    1.895   H1   137      2XA   0.000000
  2978   O5    0.025    2.019    0.378   Os   137      2XA  -0.588000
  2979   O4    0.444   -1.349    1.972   Oh   137      2XA  -0.720000
  2980  H4O    0.694   -2.208    1.603   Ho   137      2XA   0.420000
  2981   O3    0.330   -1.977   -0.885   Oh   137      2XA  -0.712000
  2982  H3O   -0.046   -2.092   -1.767   Ho   137      2XA   0.421000
  2983   O2   -1.141   -0.095   -2.523   Os   137      2XA  -0.441000
  2984   C1   -1.674    0.027    1.170   Cg   138      2XB   0.248000
  2985   H1   -1.208    0.170    2.146   H2   138      2XB   0.000000
  2986   O5   -1.608    1.287    0.424   Os   138      2XB  -0.447000
  2987   C5   -0.241    1.739    0.070   Cg   138      2XB   0.303000
  2988  H5E   -0.310    2.664   -0.504   H1   138      2XB   0.000000
  2989  H5A    0.314    1.947    0.986   H1   138      2XB   0.000000
  2990   C4    0.470    0.652   -0.758   Cg   138      2XB   0.286000
  2991   H4   -0.028    0.556   -1.724   H1   138      2XB   0.000000
  2992   O4    1.839    1.066   -0.979   Oh   138      2XB  -0.723000
  2993  H4O    2.298    0.330   -1.404   Ho   138      2XB   0.430000
  2994   C3    0.462   -0.713   -0.031   Cg   138      2XB   0.228000
  2995   H3    1.087   -0.644    0.861   H1   138      2XB   0.000000
  2996   O3    1.029   -1.724   -0.915   Oh   138      2XB  -0.682000
  2997  H3O    0.989   -2.577   -0.463   Ho   138      2XB   0.427000
  2998   C2   -0.971   -1.120    0.387   Cg   138      2XB   0.425000
  2999   H2   -1.556   -1.363   -0.502   H1   138      2XB   0.000000
  3000   O2   -0.892   -2.296    1.235   Os   138      2XB  -0.495000
  3001   C1   -1.031   -0.268    1.821   Cg   139      2ZA   0.398000
  3002   H1   -1.933   -0.599    2.335   H2   139      2ZA   0.000000
  3003   C2   -0.353   -1.480    1.128   Cg   139      2ZA   0.326000
  3004   H2   -1.114   -1.983    0.530   H1   139      2ZA   0.000000
  3005   C3    0.801   -1.053    0.191   Cg   139      2ZA   0.300000
  3006   H3    1.641   -0.716    0.801   H1   139      2ZA   0.000000
  3007   C4    0.397    0.087   -0.787   Cg   139      2ZA   0.193000
  3008   H4   -0.269   -0.314   -1.552   H1   139      2ZA   0.000000
  3009   C5   -0.316    1.270   -0.084   Cg   139      2ZA   0.187000
  3010   H5    0.426    1.745    0.561   H1   139      2ZA   0.000000
  3011   C6   -0.717    2.417   -1.121    C   139      2ZA   0.798000
  3012  O6A    0.091    2.668   -2.053   O2   139      2ZA  -0.787000
  3013  O6B   -1.781    3.049   -0.929   O2   139      2ZA  -0.787000
  3014   O5   -1.395    0.751    0.844   Os   139      2ZA  -0.544000
  3015   O4    1.584    0.618   -1.434   Oh   139      2ZA  -0.682000
  3016  H4O    1.289    1.419   -1.921   Ho   139      2ZA   0.422000
  3017   O3    1.212   -2.237   -0.553   Oh   139      2ZA  -0.743000
  3018  H3O    1.339   -2.943    0.088   Ho   139      2ZA   0.439000
  3019   O2    0.129   -2.432    2.135   Os   139      2ZA  -0.520000
  3020   C1   -1.768   -0.529    1.213   Cg   140      2ZB   0.251000
  3021   H1   -1.354   -0.393    2.213   H2   140      2ZB   0.000000
  3022   O5   -1.643    0.724    0.474   Os   140      2ZB  -0.413000
  3023   C5   -0.244    1.199    0.201   Cg   140      2ZB   0.075000
  3024   H5    0.245    1.317    1.170   H1   140      2ZB   0.000000
  3025   C6   -0.095    2.603   -0.518    C   140      2ZB   0.893000
  3026  O6B    1.034    2.891   -0.992   O2   140      2ZB  -0.818000
  3027  O6A   -1.092    3.359   -0.555   O2   140      2ZB  -0.818000
  3028   C4    0.499    0.095   -0.577   Cg   140      2ZB   0.267000
  3029   H4    0.068    0.033   -1.579   H1   140      2ZB   0.000000
  3030   O4    1.894    0.465   -0.700   Oh   140      2ZB  -0.733000
  3031  H4O    1.890    1.426   -0.925   Ho   140      2ZB   0.429000
  3032   C3    0.414   -1.298    0.103   Cg   140      2ZB   0.266000
  3033   H3    1.012   -1.279    1.017   H1   140      2ZB   0.000000
  3034   O3    1.000   -2.268   -0.815   Oh   140      2ZB  -0.701000
  3035  H3O    1.842   -1.886   -1.097   Ho   140      2ZB   0.403000
  3036   C2   -1.042   -1.686    0.468   Cg   140      2ZB   0.411000
  3037   H2   -1.591   -1.923   -0.446   H1   140      2ZB   0.000000
  3038   O2   -1.070   -2.850    1.346   Os   140      2ZB  -0.512000
  3039   C1   -1.389    1.045    0.780   Cg   141      3AA   0.448000
  3040   H1   -2.400    0.954    1.181   H2   141      3AA   0.000000
  3041   C2   -0.511   -0.089    1.361   Cg   141      3AA   0.268000
  3042   H2   -0.283    0.117    2.409   H1   141      3AA   0.000000
  3043   O2   -1.300   -1.290    1.321   Oh   141      3AA  -0.735000
  3044  H2O   -0.799   -2.014    1.703   Ho   141      3AA   0.443000
  3045   C3    0.792   -0.370    0.585   Cg   141      3AA   0.335000
  3046   H3    1.230   -1.313    0.913   H1   141      3AA   0.000000
  3047   C4    0.548   -0.405   -0.938   Cg   141      3AA   0.245000
  3048   H4   -0.048   -1.289   -1.172   H1   141      3AA   0.000000
  3049   C5   -0.201    0.829   -1.452   Cg   141      3AA   0.379000
  3050  H5E   -0.425    0.724   -2.513   H1   141      3AA   0.000000
  3051  H5A    0.397    1.732   -1.315   H1   141      3AA   0.000000
  3052   O5   -1.467    0.958   -0.699   Os   141      3AA  -0.564000
  3053   O4    1.797   -0.520   -1.638   Oh   141      3AA  -0.748000
  3054  H4O    2.346    0.241   -1.439   Ho   141      3AA   0.434000
  3055   O3    1.712    0.690    0.912   Os   141      3AA  -0.505000
  3056   C1   -1.574   -0.103    1.009   Cg   142      3AB   0.379000
  3057   H1   -1.218   -0.005    2.036   H2   142      3AB   0.000000
  3058   O5   -1.424    1.189    0.334   Os   142      3AB  -0.529000
  3059   C5   -0.017    1.632    0.162   Cg   142      3AB   0.356000
  3060  H5E   -0.007    2.570   -0.394   H1   142      3AB   0.000000
  3061  H5A    0.423    1.818    1.143   H1   142      3AB   0.000000
  3062   C4    0.791    0.558   -0.601   Cg   142      3AB   0.224000
  3063   H4    0.386    0.480   -1.611   H1   142      3AB   0.000000
  3064   O4    2.189    0.957   -0.714   Oh   142      3AB  -0.730000
  3065  H4O    2.578    0.572   -1.508   Ho   142      3AB   0.440000
  3066   C3    0.677   -0.824    0.093   Cg   142      3AB   0.297000
  3067   H3    1.197   -1.572   -0.506   H1   142      3AB   0.000000
  3068   C2   -0.796   -1.244    0.277   Cg   142      3AB   0.300000
  3069   H2   -0.852   -2.160    0.868   H1   142      3AB   0.000000
  3070   O2   -1.356   -1.518   -1.043   Oh   142      3AB  -0.700000
  3071  H2O   -2.314   -1.580   -0.940   Ho   142      3AB   0.418000
  3072   O3    1.318   -0.769    1.397   Os   142      3AB  -0.455000
  3073   C2   -0.897    0.327    1.037   Cg   143      3BA   0.130000
  3074   C1   -2.359    0.048    1.504   Cg   143      3BA   0.428000
  3075  H12   -2.354   -0.566    2.405   H1   143      3BA   0.000000
  3076  H11   -2.856    0.987    1.745   H1   143      3BA   0.000000
  3077   O1   -3.127   -0.640    0.493   Oh   143      3BA  -0.678000
  3078  H1O   -2.816   -1.549    0.464   Ho   143      3BA   0.399000
  3079   C3   -0.233   -0.926    0.389   Cg   143      3BA   0.372000
  3080   H3   -0.810   -1.203   -0.496   H1   143      3BA   0.000000
  3081   C4    1.207   -0.606   -0.080   Cg   143      3BA   0.335000
  3082   H4    1.826   -0.336    0.778   H1   143      3BA   0.000000
  3083   C5    1.170    0.559   -1.101   Cg   143      3BA   0.224000
  3084   H5    0.631    0.240   -1.995   H1   143      3BA   0.000000
  3085   C6    0.459    1.802   -0.523   Cg   143      3BA   0.341000
  3086  H6E    0.310    2.544   -1.307   H1   143      3BA   0.000000
  3087  H6A    1.074    2.256    0.255   H1   143      3BA   0.000000
  3088   O6   -0.865    1.441    0.059   Os   143      3BA  -0.507000
  3089   O5    2.519    0.939   -1.490   Oh   143      3BA  -0.690000
  3090  H5O    2.859    0.301   -2.127   Ho   143      3BA   0.429000
  3091   O4    1.788   -1.786   -0.717   Oh   143      3BA  -0.724000
  3092  H4O    2.743   -1.766   -0.587   Ho   143      3BA   0.421000
  3093   O3   -0.269   -2.066    1.293   Os   143      3BA  -0.480000
  3094   C2   -1.514   -0.061    0.437   Cg   144      3BB   0.227000
  3095   C1   -1.057    0.092    1.924   Cg   144      3BB   0.281000
  3096  H12   -1.326   -0.797    2.496   H1   144      3BB   0.000000
  3097  H11    0.026    0.203    1.974   H1   144      3BB   0.000000
  3098   O1   -1.661    1.243    2.553   Oh   144      3BB  -0.626000
  3099  H1O   -1.362    1.303    3.463   Ho   144      3BB   0.395000
  3100   O6   -1.349    1.208   -0.312   Os   144      3BB  -0.477000
  3101   C6    0.042    1.643   -0.599   Cg   144      3BB   0.311000
  3102  H6E    0.014    2.553   -1.197   H1   144      3BB   0.000000
  3103  H6A    0.547    1.870    0.341   H1   144      3BB   0.000000
  3104   C5    0.790    0.528   -1.360   Cg   144      3BB   0.340000
  3105   H5    0.372    0.443   -2.364   H1   144      3BB   0.000000
  3106   O5    2.184    0.891   -1.464   Oh   144      3BB  -0.720000
  3107  H5O    2.642    0.113   -1.808   Ho   144      3BB   0.429000
  3108   C4    0.706   -0.839   -0.647   Cg   144      3BB   0.108000
  3109   H4    1.272   -0.794    0.286   H1   144      3BB   0.000000
  3110   O4    1.309   -1.860   -1.499   Oh   144      3BB  -0.675000
  3111  H4O    1.204   -2.722   -1.072   Ho   144      3BB   0.435000
  3112   C3   -0.767   -1.202   -0.329   Cg   144      3BB   0.464000
  3113   H3   -1.287   -1.388   -1.271   H1   144      3BB   0.000000
  3114   O3   -0.786   -2.429    0.449   Os   144      3BB  -0.492000
  3115   C2   -0.932    0.144    1.057   Cg   145      3CA   0.345000
  3116   C1   -2.444   -0.135    1.359   Cg   145      3CA   0.386000
  3117  H12   -2.527   -0.966    2.061   H1   145      3CA   0.000000
  3118  H11   -2.901    0.740    1.825   H1   145      3CA   0.000000
  3119   O1   -3.201   -0.463    0.172   Oh   145      3CA  -0.696000
  3120  H1O   -2.632   -1.026   -0.373   Ho   145      3CA   0.402000
  3121   C3   -0.150   -1.122    0.540   Cg   145      3CA   0.247000
  3122   H3    0.013   -1.799    1.381   H1   145      3CA   0.000000
  3123   C4    1.218   -0.781   -0.105   Cg   145      3CA   0.367000
  3124   H4    1.586   -1.660   -0.636   H1   145      3CA   0.000000
  3125   C5    1.120    0.390   -1.107   Cg   145      3CA   0.195000
  3126   H5    0.442    0.102   -1.912   H1   145      3CA   0.000000
  3127   C6    0.546    1.628   -0.397   Cg   145      3CA   0.437000
  3128  H6E    0.449    2.450   -1.106   H1   145      3CA   0.000000
  3129  H6A    1.204    1.956    0.409   H1   145      3CA   0.000000
  3130   O6   -0.794    1.311    0.153   Os   145      3CA  -0.620000
  3131   O5    2.423    0.672   -1.706   Oh   145      3CA  -0.709000
  3132  H5O    2.319    1.088   -2.570   Ho   145      3CA   0.415000
  3133   O4    2.191   -0.472    0.926   Oh   145      3CA  -0.720000
  3134  H4O    3.000   -0.189    0.482   Ho   145      3CA   0.394000
  3135   O3   -0.929   -1.868   -0.453   Os   145      3CA  -0.443000
  3136   C2   -1.525   -0.177    0.312   Cg   146      3CB   0.244000
  3137   C1   -1.117    0.007    1.809   Cg   146      3CB   0.297000
  3138  H12   -1.294   -0.917    2.362   H1   146      3CB   0.000000
  3139  H11   -0.060    0.247    1.895   H1   146      3CB   0.000000
  3140   O1   -1.863    1.075    2.440   Oh   146      3CB  -0.669000
  3141  H1O   -1.572    1.175    3.351   Ho   146      3CB   0.401000
  3142   O6   -1.368    1.088   -0.441   Os   146      3CB  -0.460000
  3143   C6    0.015    1.534   -0.731   Cg   146      3CB   0.365000
  3144  H6E   -0.024    2.453   -1.315   H1   146      3CB   0.000000
  3145  H6A    0.533    1.749    0.204   H1   146      3CB   0.000000
  3146   C5    0.751    0.437   -1.522   Cg   146      3CB   0.195000
  3147   H5    0.252    0.329   -2.486   H1   146      3CB   0.000000
  3148   O5    2.127    0.840   -1.783   Oh   146      3CB  -0.684000
  3149  H5O    2.658    0.678   -0.994   Ho   146      3CB   0.415000
  3150   C4    0.708   -0.930   -0.795   Cg   146      3CB   0.344000
  3151   H4    1.126   -1.690   -1.458   H1   146      3CB   0.000000
  3152   O4    1.548   -0.888    0.397   Oh   146      3CB  -0.698000
  3153  H4O    1.963   -1.750    0.518   Ho   146      3CB   0.417000
  3154   C3   -0.736   -1.332   -0.398   Cg   146      3CB   0.317000
  3155   H3   -0.708   -2.205    0.256   H1   146      3CB   0.000000
  3156   O3   -1.415   -1.724   -1.622   Os   146      3CB  -0.484000
  3157   C1   -0.838    1.494   -0.748   Cg   147      3DA   0.398000
  3158   H1   -0.666    2.296   -1.466   H2   147      3DA   0.000000
  3159   C2   -0.347    0.145   -1.357   Cg   147      3DA   0.246000
  3160   H2   -1.011   -0.146   -2.173   H1   147      3DA   0.000000
  3161   O2    0.992    0.318   -1.908   Oh   147      3DA  -0.678000
  3162  H2O    0.969    0.877   -2.690   Ho   147      3DA   0.432000
  3163   C3   -0.344   -0.967   -0.279   Cg   147      3DA   0.184000
  3164   H3   -1.374   -1.118    0.048   H1   147      3DA   0.000000
  3165   C4    0.505   -0.552    0.943   Cg   147      3DA   0.351000
  3166   H4    1.550   -0.435    0.655   H1   147      3DA   0.000000
  3167   C5   -0.026    0.769    1.538   Cg   147      3DA   0.275000
  3168  H5E    0.638    1.116    2.329   H1   147      3DA   0.000000
  3169  H5A   -1.013    0.607    1.978   H1   147      3DA   0.000000
  3170   O5   -0.140    1.833    0.502   Os   147      3DA  -0.487000
  3171   O4    0.408   -1.582    1.954   Oh   147      3DA  -0.711000
  3172  H4O    0.577   -2.419    1.502   Ho   147      3DA   0.422000
  3173   O3    0.120   -2.237   -0.827   Os   147      3DA  -0.432000
  3174   C1    0.981    0.869    1.343   Cg   148      3DB   0.448000
  3175   H1    1.165    1.816    0.834   H2   148      3DB   0.000000
  3176   O5   -0.464    0.774    1.648   Os   148      3DB  -0.519000
  3177   C5   -1.360    0.836    0.472   Cg   148      3DB   0.275000
  3178  H5E   -2.392    0.713    0.801   H1   148      3DB   0.000000
  3179  H5A   -1.266    1.822    0.012   H1   148      3DB   0.000000
  3180   C4   -0.987   -0.268   -0.534   Cg   148      3DB   0.335000
  3181   H4   -1.292   -1.238   -0.140   H1   148      3DB   0.000000
  3182   O4   -1.713    0.002   -1.744   Oh   148      3DB  -0.709000
  3183  H4O   -1.517   -0.678   -2.393   Ho   148      3DB   0.436000
  3184   C3    0.523   -0.268   -0.851   Cg   148      3DB   0.201000
  3185   H3    0.771    0.638   -1.408   H1   148      3DB   0.000000
  3186   C2    1.392   -0.299    0.423   Cg   148      3DB   0.226000
  3187   H2    2.448   -0.220    0.160   H1   148      3DB   0.000000
  3188   O2    1.169   -1.544    1.125   Oh   148      3DB  -0.645000
  3189  H2O    1.693   -1.555    1.930   Ho   148      3DB   0.415000
  3190   O3    0.848   -1.401   -1.678   Os   148      3DB  -0.463000
  3191   C1   -0.844    0.971    1.539   Cg   149      3EA   0.480000
  3192   H1   -1.778    1.034    2.099   H2   149      3EA   0.000000
  3193   C2   -0.028   -0.237    2.051   Cg   149      3EA   0.179000
  3194   H2    0.390   -0.014    3.036   H1   149      3EA   0.000000
  3195   O2   -0.950   -1.327    2.211   Oh   149      3EA  -0.690000
  3196  H2O   -1.647   -1.070    2.819   Ho   149      3EA   0.447000
  3197   C3    1.088   -0.715    1.102   Cg   149      3EA   0.328000
  3198   H3    1.463   -1.688    1.424   H1   149      3EA   0.000000
  3199   C4    0.601   -0.798   -0.360   Cg   149      3EA   0.261000
  3200   H4   -0.119   -1.614   -0.433   H1   149      3EA   0.000000
  3201   C5   -0.078    0.497   -0.847   Cg   149      3EA   0.374000
  3202   H5    0.649    1.311   -0.835   H1   149      3EA   0.000000
  3203   C6   -0.691    0.392   -2.250   Cg   149      3EA   0.259000
  3204  H62    0.064    0.089   -2.975   H1   149      3EA   0.000000
  3205  H61   -1.498   -0.342   -2.265   H1   149      3EA   0.000000
  3206   O6   -1.206    1.675   -2.630   Oh   149      3EA  -0.663000
  3207  H6O   -0.494    2.319   -2.630   Ho   149      3EA   0.406000
  3208   O5   -1.174    0.820    0.103   Os   149      3EA  -0.587000
  3209   O4    1.713   -1.118   -1.215   Oh   149      3EA  -0.721000
  3210  H4O    2.373   -0.423   -1.154   Ho   149      3EA   0.415000
  3211   O3    2.166    0.238    1.210   Os   149      3EA  -0.488000
  3212   C1   -1.469   -0.760    1.144   Cg   150      3EB   0.488000
  3213   H1   -1.093   -0.658    2.162   H2   150      3EB   0.000000
  3214   O5   -1.334    0.527    0.452   Os   150      3EB  -0.532000
  3215   C5    0.079    0.984    0.237   Cg   150      3EB   0.257000
  3216   H5    0.536    1.154    1.214   H1   150      3EB   0.000000
  3217   C6    0.067    2.317   -0.535   Cg   150      3EB   0.278000
  3218  H62   -0.384    2.178   -1.518   H1   150      3EB   0.000000
  3219  H61    1.082    2.690   -0.673   H1   150      3EB   0.000000
  3220   O6   -0.694    3.299    0.192   Oh   150      3EB  -0.677000
  3221  H6O   -1.545    2.911    0.416   Ho   150      3EB   0.408000
  3222   C4    0.876   -0.113   -0.512   Cg   150      3EB   0.320000
  3223   H4    0.468   -0.213   -1.519   H1   150      3EB   0.000000
  3224   O4    2.276    0.268   -0.640   Oh   150      3EB  -0.724000
  3225  H4O    2.683   -0.211   -1.371   Ho   150      3EB   0.420000
  3226   C3    0.760   -1.484    0.211   Cg   150      3EB   0.315000
  3227   H3    1.282   -2.243   -0.373   H1   150      3EB   0.000000
  3228   C2   -0.713   -1.898    0.391   Cg   150      3EB   0.184000
  3229   H2   -0.771   -2.820    0.972   H1   150      3EB   0.000000
  3230   O2   -1.270   -2.159   -0.937   Oh   150      3EB  -0.697000
  3231  H2O   -2.213   -2.346   -0.839   Ho   150      3EB   0.432000
  3232   O3    1.378   -1.423    1.525   Os   150      3EB  -0.472000
  3233   C1   -0.866    1.439   -1.028   Cg   151      3FA   0.399000
  3234   H1   -0.639    2.298   -1.661   H2   151      3FA   0.000000
  3235   C2   -0.356    0.136   -1.731   Cg   151      3FA   0.456000
  3236   H2    0.711    0.261   -1.925   H1   151      3FA   0.000000
  3237   O2   -1.000   -0.082   -3.025   Oh   151      3FA  -0.804000
  3238  H2O   -0.422   -0.626   -3.567   Ho   151      3FA   0.453000
  3239   C3   -0.558   -1.080   -0.792   Cg   151      3FA   0.228000
  3240   H3   -1.621   -1.192   -0.571   H1   151      3FA   0.000000
  3241   C4    0.200   -0.852    0.540   Cg   151      3FA   0.263000
  3242   H4   -0.014   -1.681    1.216   H1   151      3FA   0.000000
  3243   C5   -0.236    0.474    1.222   Cg   151      3FA   0.187000
  3244   H5   -1.272    0.347    1.540   H1   151      3FA   0.000000
  3245   C6    0.571    0.863    2.464   Cg   151      3FA   0.065000
  3246  H63    0.558    0.067    3.208   Hc   151      3FA   0.000000
  3247  H62    0.159    1.755    2.937   Hc   151      3FA   0.000000
  3248  H61    1.614    1.074    2.224   Hc   151      3FA   0.000000
  3249   O5   -0.194    1.625    0.268   Os   151      3FA  -0.494000
  3250   O4    1.629   -0.841    0.280   Oh   151      3FA  -0.739000
  3251  H4O    1.838   -1.653   -0.200   Ho   151      3FA   0.447000
  3252   O3   -0.101   -2.332   -1.399   Os   151      3FA  -0.461000
  3253   C1   -1.449    0.520    1.152   Cg   152      3FB   0.418000
  3254   H1   -1.148    1.486    1.559   H2   152      3FB   0.000000
  3255   O5   -1.353    0.582   -0.323   Os   152      3FB  -0.442000
  3256   C5    0.007    0.746   -0.886   Cg   152      3FB   0.106000
  3257   H5    0.440    1.661   -0.475   H1   152      3FB   0.000000
  3258   C6   -0.123    0.940   -2.399   Cg   152      3FB   0.092000
  3259  H63    0.855    1.068   -2.866   Hc   152      3FB   0.000000
  3260  H62   -0.610    0.091   -2.881   Hc   152      3FB   0.000000
  3261  H61   -0.711    1.829   -2.633   Hc   152      3FB   0.000000
  3262   C4    0.879   -0.445   -0.437   Cg   152      3FB   0.229000
  3263   H4    1.899   -0.317   -0.805   H1   152      3FB   0.000000
  3264   O4    0.328   -1.658   -0.996   Oh   152      3FB  -0.659000
  3265  H4O    0.318   -1.593   -1.954   Ho   152      3FB   0.423000
  3266   C3    0.882   -0.534    1.102   Cg   152      3FB   0.255000
  3267   H3    1.389    0.353    1.487   H1   152      3FB   0.000000
  3268   C2   -0.537   -0.601    1.701   Cg   152      3FB   0.346000
  3269   H2   -0.982   -1.577    1.500   H1   152      3FB   0.000000
  3270   O2   -0.425   -0.411    3.123   Oh   152      3FB  -0.765000
  3271  H2O   -1.298   -0.450    3.521   Ho   152      3FB   0.440000
  3272   O3    1.638   -1.690    1.510   Os   152      3FB  -0.443000
  3273   C1   -0.940   -0.601    1.703   Cg   153      3GA   0.509000
  3274   H1   -1.849   -0.962    2.184   H2   153      3GA   0.000000
  3275   C2   -0.225   -1.779    0.981   Cg   153      3GA   0.246000
  3276   H2   -0.962   -2.275    0.348   H1   153      3GA   0.000000
  3277   O2    0.279   -2.768    1.937   Oh   153      3GA  -0.713000
  3278  H2O    0.651   -2.309    2.703   Ho   153      3GA   0.437000
  3279   C3    0.926   -1.275    0.084   Cg   153      3GA   0.286000
  3280   H3    1.735   -0.899    0.714   H1   153      3GA   0.000000
  3281   C4    0.463   -0.162   -0.886   Cg   153      3GA   0.254000
  3282   H4   -0.244   -0.579   -1.607   H1   153      3GA   0.000000
  3283   C5   -0.208    1.000   -0.125   Cg   153      3GA   0.283000
  3284   H5    0.545    1.476    0.506   H1   153      3GA   0.000000
  3285   C6   -0.797    2.068   -1.075   Cg   153      3GA   0.276000
  3286  H62   -0.084    2.320   -1.860   H1   153      3GA   0.000000
  3287  H61   -1.701    1.687   -1.551   H1   153      3GA   0.000000
  3288   O6   -1.114    3.278   -0.353   Oh   153      3GA  -0.682000
  3289  H6O   -0.311    3.781   -0.195   Ho   153      3GA   0.418000
  3290   O5   -1.292    0.460    0.760   Os   153      3GA  -0.574000
  3291   O4    1.617    0.347   -1.604   Oh   153      3GA  -0.710000
  3292  H4O    2.088   -0.417   -1.968   Ho   153      3GA   0.436000
  3293   O3    1.425   -2.392   -0.696   Os   153      3GA  -0.466000
  3294   C1   -1.436   -0.778    1.051   Cg   154      3GB   0.384000
  3295   H1   -1.041   -0.666    2.062   H2   154      3GB   0.000000
  3296   O5   -1.375    0.515    0.363   Os   154      3GB  -0.471000
  3297   C5    0.001    1.052    0.132   Cg   154      3GB   0.225000
  3298   H5    0.484    1.185    1.102   H1   154      3GB   0.000000
  3299   C6   -0.097    2.425   -0.560   Cg   154      3GB   0.282000
  3300  H62   -0.566    2.321   -1.539   H1   154      3GB   0.000000
  3301  H61    0.894    2.857   -0.698   H1   154      3GB   0.000000
  3302   O6   -0.888    3.322    0.244   Oh   154      3GB  -0.688000
  3303  H6O   -1.728    2.893    0.435   Ho   154      3GB   0.424000
  3304   C4    0.804    0.029   -0.697   Cg   154      3GB   0.276000
  3305   H4    0.376   -0.041   -1.699   H1   154      3GB   0.000000
  3306   O4    2.174    0.486   -0.807   Oh   154      3GB  -0.714000
  3307  H4O    2.684   -0.225   -1.219   Ho   154      3GB   0.440000
  3308   C3    0.789   -1.370   -0.033   Cg   154      3GB   0.284000
  3309   H3    1.348   -1.326    0.904   H1   154      3GB   0.000000
  3310   C2   -0.647   -1.858    0.260   Cg   154      3GB   0.310000
  3311   H2   -1.161   -2.061   -0.682   H1   154      3GB   0.000000
  3312   O2   -0.580   -3.093    1.032   Oh   154      3GB  -0.718000
  3313  H2O   -1.481   -3.349    1.267   Ho   154      3GB   0.437000
  3314   O3    1.445   -2.317   -0.919   Os   154      3GB  -0.471000
  3315   C1   -0.742    1.550   -1.206   Cg   155      3HA   0.394000
  3316   H1   -0.401    2.395   -1.804   H2   155      3HA   0.000000
  3317   C2   -0.382    0.226   -1.936   Cg   155      3HA   0.248000
  3318   H2   -1.008    0.117   -2.823   H1   155      3HA   0.000000
  3319   O2    1.007    0.272   -2.370   Oh   155      3HA  -0.670000
  3320  H2O    1.230   -0.612   -2.688   Ho   155      3HA   0.421000
  3321   C3   -0.597   -0.986   -1.004   Cg   155      3HA   0.236000
  3322   H3   -1.667   -1.082   -0.804   H1   155      3HA   0.000000
  3323   C4    0.149   -0.835    0.341   Cg   155      3HA   0.187000
  3324   H4    1.226   -0.831    0.165   H1   155      3HA   0.000000
  3325   C5   -0.271    0.479    1.044   Cg   155      3HA   0.279000
  3326   H5   -1.323    0.407    1.329   H1   155      3HA   0.000000
  3327   C6    0.546    0.799    2.298   Cg   155      3HA   0.023000
  3328  H63    0.439    0.022    3.054   Hc   155      3HA   0.000000
  3329  H62    0.222    1.736    2.753   Hc   155      3HA   0.000000
  3330  H61    1.609    0.894    2.072   Hc   155      3HA   0.000000
  3331   O5   -0.120    1.638    0.127   Os   155      3HA  -0.461000
  3332   O4   -0.184   -1.969    1.191   Oh   155      3HA  -0.644000
  3333  H4O    0.429   -2.021    1.931   Ho   155      3HA   0.405000
  3334   O3   -0.162   -2.201   -1.671   Os   155      3HA  -0.418000
  3335   C1   -1.953   -0.462   -0.611   Cg   156      3HB   0.381000
  3336   H1   -1.741   -1.210   -1.377   H2   156      3HB   0.000000
  3337   O5   -1.252   -0.851    0.632   Os   156      3HB  -0.427000
  3338   C5    0.222   -0.982    0.527   Cg   156      3HB   0.172000
  3339   H5    0.437   -1.791   -0.174   H1   156      3HB   0.000000
  3340  C6M    0.736   -1.387    1.910   Cg   156      3HB   0.039000
  3341  H1M    0.270   -2.313    2.250   Hc   156      3HB   0.000000
  3342  H2M    0.530   -0.621    2.658   Hc   156      3HB   0.000000
  3343  H3M    1.814   -1.556    1.900   Hc   156      3HB   0.000000
  3344   C4    0.826    0.335   -0.014   Cg   156      3HB   0.388000
  3345   H4    0.799    1.100    0.765   H1   156      3HB   0.000000
  3346   O4    2.193    0.072   -0.373   Oh   156      3HB  -0.728000
  3347  H4O    2.672   -0.239    0.398   Ho   156      3HB   0.432000
  3348   C3    0.089    0.839   -1.272   Cg   156      3HB   0.182000
  3349   H3    0.289    0.156   -2.101   H1   156      3HB   0.000000
  3350   C2   -1.439    0.915   -1.076   Cg   156      3HB   0.243000
  3351   H2   -1.924    1.203   -2.010   H1   156      3HB   0.000000
  3352   O2   -1.743    1.897   -0.059   Oh   156      3HB  -0.673000
  3353  H2O   -1.409    2.754   -0.333   Ho   156      3HB   0.432000
  3354   O3    0.584    2.140   -1.640   Os   156      3HB  -0.441000
  3355   C2   -0.859    0.262    1.087   Cg   157      3JA   0.114000
  3356   C1   -2.303   -0.067    1.584   Cg   157      3JA   0.410000
  3357  H12   -2.270   -0.902    2.286   H1   157      3JA   0.000000
  3358  H11   -2.732    0.791    2.102   H1   157      3JA   0.000000
  3359   O1   -3.163   -0.421    0.488   Oh   157      3JA  -0.656000
  3360  H1O   -2.589   -0.853   -0.163   Ho   157      3JA   0.405000
  3361   C3   -0.121   -0.964    0.464   Cg   157      3JA   0.271000
  3362   H3    0.039   -1.722    1.232   H1   157      3JA   0.000000
  3363   C4    1.250   -0.547   -0.128   Cg   157      3JA   0.281000
  3364   H4    1.895   -0.205    0.682   H1   157      3JA   0.000000
  3365   C5    1.096    0.595   -1.160   Cg   157      3JA   0.273000
  3366   H5    0.518    0.246   -2.017   H1   157      3JA   0.000000
  3367   C6    0.385    1.805   -0.524   Cg   157      3JA   0.368000
  3368  H6E    0.164    2.551   -1.288   H1   157      3JA   0.000000
  3369  H6A    1.035    2.270    0.219   H1   157      3JA   0.000000
  3370   O6   -0.885    1.403    0.141   Os   157      3JA  -0.504000
  3371   O5    2.407    1.016   -1.623   Oh   157      3JA  -0.699000
  3372  H5O    2.859    0.243   -1.984   Ho   157      3JA   0.419000
  3373   O4    1.888   -1.708   -0.743   Oh   157      3JA  -0.672000
  3374  H4O    2.318   -2.235   -0.060   Ho   157      3JA   0.413000
  3375   O3   -0.932   -1.558   -0.593   Os   157      3JA  -0.423000
  3376   C2   -1.487   -0.050    0.572   Cg   158      3JB   0.413000
  3377   C1   -0.899    0.047    2.019   Cg   158      3JB   0.280000
  3378  H12   -1.273   -0.779    2.626   H1   158      3JB   0.000000
  3379  H11    0.186   -0.035    1.995   H1   158      3JB   0.000000
  3380   O1   -1.229    1.290    2.675   Oh   158      3JB  -0.722000
  3381  H1O   -2.151    1.492    2.475   Ho   158      3JB   0.432000
  3382   O6   -1.283    1.196   -0.208   Os   158      3JB  -0.551000
  3383   C6    0.109    1.522   -0.607   Cg   158      3JB   0.292000
  3384  H6E    0.098    2.408   -1.242   H1   158      3JB   0.000000
  3385  H6A    0.684    1.759    0.289   H1   158      3JB   0.000000
  3386   C5    0.763    0.340   -1.360   Cg   158      3JB   0.374000
  3387   H5    0.312    0.256   -2.350   H1   158      3JB   0.000000
  3388   O5    2.186    0.598   -1.517   Oh   158      3JB  -0.729000
  3389  H5O    2.594    0.810   -0.672   Ho   158      3JB   0.426000
  3390   C4    0.590   -0.998   -0.597   Cg   158      3JB   0.155000
  3391   H4    1.174   -0.948    0.322   H1   158      3JB   0.000000
  3392   O4    1.115   -2.114   -1.377   Oh   158      3JB  -0.684000
  3393  H4O    1.977   -1.869   -1.743   Ho   158      3JB   0.438000
  3394   C3   -0.891   -1.265   -0.222   Cg   158      3JB   0.363000
  3395   H3   -0.957   -2.170    0.384   H1   158      3JB   0.000000
  3396   O3   -1.622   -1.491   -1.466   Os   158      3JB  -0.487000
  3397   C1   -0.934    0.918    1.480   Cg   159      3KA   0.473000
  3398   H1   -1.868    0.943    2.042   H2   159      3KA   0.000000
  3399   C2   -0.074   -0.259    1.987   Cg   159      3KA   0.281000
  3400   H2   -0.724   -1.136    1.988   H1   159      3KA   0.000000
  3401   O2    0.325   -0.049    3.354   Oh   159      3KA  -0.716000
  3402  H2O    0.886    0.728    3.406   Ho   159      3KA   0.427000
  3403   C3    1.145   -0.611    1.107   Cg   159      3KA   0.354000
  3404   H3    1.596   -1.542    1.454   H1   159      3KA   0.000000
  3405   C4    0.744   -0.736   -0.376   Cg   159      3KA   0.196000
  3406   H4    1.639   -0.822   -0.993   H1   159      3KA   0.000000
  3407   C5   -0.111    0.456   -0.875   Cg   159      3KA   0.301000
  3408   H5    0.525    1.344   -0.855   H1   159      3KA   0.000000
  3409   C6   -0.655    0.307   -2.303   Cg   159      3KA   0.287000
  3410  H62    0.156    0.075   -2.993   H1   159      3KA   0.000000
  3411  H61   -1.395   -0.492   -2.355   H1   159      3KA   0.000000
  3412   O6   -1.263    1.544   -2.699   Oh   159      3KA  -0.691000
  3413  H6O   -0.610    2.247   -2.666   Ho   159      3KA   0.422000
  3414   O5   -1.253    0.685    0.053   Os   159      3KA  -0.540000
  3415   O4   -0.011   -1.954   -0.515   Oh   159      3KA  -0.712000
  3416  H4O   -0.258   -2.074   -1.435   Ho   159      3KA   0.420000
  3417   O3    2.138    0.428    1.194   Os   159      3KA  -0.502000
  3418   C1   -1.365   -0.649    1.167   Cg   160      3KB   0.449000
  3419   H1   -0.971   -0.499    2.174   H2   160      3KB   0.000000
  3420   O5   -1.273    0.603    0.413   Os   160      3KB  -0.514000
  3421   C5    0.122    1.061    0.111   Cg   160      3KB   0.303000
  3422   H5    0.624    1.257    1.061   H1   160      3KB   0.000000
  3423   C6    0.068    2.389   -0.671   Cg   160      3KB   0.259000
  3424  H62   -0.499    2.267   -1.594   H1   160      3KB   0.000000
  3425  H61    1.076    2.713   -0.929   H1   160      3KB   0.000000
  3426   O6   -0.557    3.412    0.130   Oh   160      3KB  -0.670000
  3427  H6O   -1.437    3.109    0.374   Ho   160      3KB   0.416000
  3428   C4    0.920   -0.047   -0.628   Cg   160      3KB   0.217000
  3429   H4    1.963    0.265   -0.710   H1   160      3KB   0.000000
  3430   O4    0.412   -0.242   -1.978   Oh   160      3KB  -0.700000
  3431  H4O    1.054   -0.723   -2.512   Ho   160      3KB   0.425000
  3432   C3    0.844   -1.390    0.132   Cg   160      3KB   0.253000
  3433   H3    1.321   -2.170   -0.463   H1   160      3KB   0.000000
  3434   C2   -0.617   -1.801    0.434   Cg   160      3KB   0.308000
  3435   H2   -1.122   -2.005   -0.511   H1   160      3KB   0.000000
  3436   O2   -0.619   -3.035    1.219   Oh   160      3KB  -0.710000
  3437  H2O   -1.536   -3.264    1.414   Ho   160      3KB   0.426000
  3438   O3    1.593   -1.249    1.367   Os   160      3KB  -0.462000
  3439   C1   -0.991    0.881    1.454   Cg   161      3LA   0.465000
  3440   H1   -1.942    0.893    1.987   H2   161      3LA   0.000000
  3441   C2   -0.127   -0.284    1.991   Cg   161      3LA   0.339000
  3442   H2   -0.745   -1.184    2.004   H1   161      3LA   0.000000
  3443   O2    0.268   -0.002    3.346   Oh   161      3LA  -0.724000
  3444  H2O    0.796    0.800    3.364   Ho   161      3LA   0.431000
  3445   C3    1.118   -0.543    1.121   Cg   161      3LA   0.253000
  3446   H3    1.795    0.308    1.201   H1   161      3LA   0.000000
  3447   C4    0.746   -0.736   -0.365   Cg   161      3LA   0.204000
  3448   H4    1.653   -0.837   -0.963   H1   161      3LA   0.000000
  3449   C5   -0.081    0.465   -0.874   Cg   161      3LA   0.216000
  3450   H5    0.553    1.352   -0.805   H1   161      3LA   0.000000
  3451   C6   -0.565    0.348   -2.326   Cg   161      3LA   0.308000
  3452  H62    0.274    0.135   -2.988   H1   161      3LA   0.000000
  3453  H61   -1.300   -0.452   -2.429   H1   161      3LA   0.000000
  3454   O6   -1.161    1.593   -2.717   Oh   161      3LA  -0.684000
  3455  H6O   -0.513    2.296   -2.640   Ho   161      3LA   0.418000
  3456   O5   -1.261    0.662    0.014   Os   161      3LA  -0.527000
  3457   O4   -0.049   -1.933   -0.519   Oh   161      3LA  -0.673000
  3458  H4O   -0.280   -2.047   -1.444   Ho   161      3LA   0.436000
  3459   O3    1.813   -1.714    1.589   Os   161      3LA  -0.462000
  3460   C1   -1.341   -0.730    1.128   Cg   162      3LB   0.374000
  3461   H1   -0.948   -0.621    2.140   H2   162      3LB   0.000000
  3462   O5   -1.264    0.571    0.450   Os   162      3LB  -0.402000
  3463   C5    0.112    1.080    0.163   Cg   162      3LB   0.140000
  3464   H5    0.628    1.216    1.115   H1   162      3LB   0.000000
  3465   C6    0.025    2.452   -0.530   Cg   162      3LB   0.319000
  3466  H62   -0.566    2.388   -1.445   H1   162      3LB   0.000000
  3467  H61    1.022    2.810   -0.787   H1   162      3LB   0.000000
  3468   O6   -0.591    3.391    0.366   Oh   162      3LB  -0.693000
  3469  H6O   -1.459    3.051    0.597   Ho   162      3LB   0.419000
  3470   C4    0.905    0.036   -0.655   Cg   162      3LB   0.203000
  3471   H4    1.937    0.371   -0.765   H1   162      3LB   0.000000
  3472   O4    0.322   -0.094   -1.975   Oh   162      3LB  -0.664000
  3473  H4O    0.769   -0.830   -2.413   Ho   162      3LB   0.437000
  3474   C3    0.887   -1.336    0.058   Cg   162      3LB   0.259000
  3475   H3    1.423   -1.234    1.004   H1   162      3LB   0.000000
  3476   C2   -0.551   -1.825    0.352   Cg   162      3LB   0.357000
  3477   H2   -1.062   -2.051   -0.586   H1   162      3LB   0.000000
  3478   O2   -0.476   -3.043    1.152   Oh   162      3LB  -0.726000
  3479  H2O   -1.377   -3.297    1.386   Ho   162      3LB   0.432000
  3480   O3    1.606   -2.305   -0.756   Os   162      3LB  -0.455000
  3481   C1   -1.017   -0.534    1.802   Cg   163      3MA   0.433000
  3482   H1   -1.982   -0.851    2.198   H2   163      3MA   0.000000
  3483   C2   -0.311   -1.741    1.120   Cg   163      3MA   0.245000
  3484   H2   -0.007   -2.460    1.882   H1   163      3MA   0.000000
  3485   O2   -1.236   -2.412    0.214   Oh   163      3MA  -0.717000
  3486  H2O   -0.735   -3.021   -0.342   Ho   163      3MA   0.446000
  3487   C3    0.936   -1.270    0.339   Cg   163      3MA   0.252000
  3488   H3    1.663   -0.875    1.051   H1   163      3MA   0.000000
  3489   C4    0.584   -0.156   -0.679   Cg   163      3MA   0.326000
  3490   H4   -0.087   -0.551   -1.443   H1   163      3MA   0.000000
  3491   C5   -0.078    1.044    0.035   Cg   163      3MA   0.276000
  3492   H5    0.661    1.497    0.699   H1   163      3MA   0.000000
  3493   C6   -0.565    2.118   -0.962   Cg   163      3MA   0.266000
  3494  H62    0.209    2.336   -1.698   H1   163      3MA   0.000000
  3495  H61   -1.446    1.761   -1.496   H1   163      3MA   0.000000
  3496   O6   -0.890    3.348   -0.278   Oh   163      3MA  -0.688000
  3497  H6O   -0.085    3.786    0.007   Ho   163      3MA   0.422000
  3498   O5   -1.231    0.583    0.871   Os   163      3MA  -0.507000
  3499   O4    1.807    0.295   -1.318   Oh   163      3MA  -0.733000
  3500  H4O    2.254   -0.487   -1.667   Ho   163      3MA   0.438000
  3501   O3    1.553   -2.411   -0.333   Os   163      3MA  -0.459000
  3502   C1   -1.391   -0.805    1.235   Cg   164      3MB   0.314000
  3503   H1   -0.910   -0.763    2.213   H2   164      3MB   0.000000
  3504   O5   -1.283    0.515    0.598   Os   164      3MB  -0.393000
  3505   C5    0.106    0.974    0.275   Cg   164      3MB   0.206000
  3506   H5    0.630    1.141    1.219   H1   164      3MB   0.000000
  3507   C6    0.027    2.309   -0.485   Cg   164      3MB   0.273000
  3508  H62   -0.496    2.174   -1.433   H1   164      3MB   0.000000
  3509  H61    1.026    2.690   -0.696   H1   164      3MB   0.000000
  3510   O6   -0.682    3.280    0.305   Oh   164      3MB  -0.680000
  3511  H6O   -1.546    2.919    0.527   Ho   164      3MB   0.419000
  3512   C4    0.870   -0.106   -0.533   Cg   164      3MB   0.349000
  3513   H4    0.460   -0.171   -1.542   H1   164      3MB   0.000000
  3514   O4    2.264    0.290   -0.622   Oh   164      3MB  -0.746000
  3515  H4O    2.665   -0.177   -1.362   Ho   164      3MB   0.443000
  3516   C3    0.764   -1.486    0.173   Cg   164      3MB   0.263000
  3517   H3    1.214   -1.405    1.165   H1   164      3MB   0.000000
  3518   C2   -0.717   -1.893    0.354   Cg   164      3MB   0.241000
  3519   H2   -0.781   -2.863    0.850   H1   164      3MB   0.000000
  3520   O2   -1.393   -1.972   -0.936   Oh   164      3MB  -0.664000
  3521  H2O   -2.329   -2.131   -0.765   Ho   164      3MB   0.431000
  3522   O3    1.501   -2.521   -0.541   Os   164      3MB  -0.456000
  3523   C1   -1.010    0.928    1.459   Cg   165      3NA   0.478000
  3524   H1   -1.956    1.022    1.992   H2   165      3NA   0.000000
  3525   C2   -0.273   -0.333    1.964   Cg   165      3NA   0.228000
  3526   H2   -0.990   -1.154    1.912   H1   165      3NA   0.000000
  3527   O2    0.087   -0.190    3.349   Oh   165      3NA  -0.668000
  3528  H2O    0.722    0.524    3.441   Ho   165      3NA   0.415000
  3529   C3    0.948   -0.753    1.124   Cg   165      3NA   0.330000
  3530   H3    1.331   -1.712    1.477   H1   165      3NA   0.000000
  3531   C4    0.514   -0.869   -0.352   Cg   165      3NA   0.167000
  3532   H4   -0.182   -1.705   -0.435   H1   165      3NA   0.000000
  3533   C5   -0.179    0.400   -0.896   Cg   165      3NA   0.404000
  3534   H5    0.539    1.222   -0.905   H1   165      3NA   0.000000
  3535   C6   -0.763    0.229   -2.306   Cg   165      3NA   0.280000
  3536  H62    0.010   -0.089   -3.004   H1   165      3NA   0.000000
  3537  H61   -1.557   -0.519   -2.305   H1   165      3NA   0.000000
  3538   O6   -1.294    1.487   -2.747   Oh   165      3NA  -0.663000
  3539  H6O   -0.592    2.142   -2.763   Ho   165      3NA   0.396000
  3540   O5   -1.300    0.757    0.017   Os   165      3NA  -0.611000
  3541   O4    1.664   -1.177   -1.161   Oh   165      3NA  -0.733000
  3542  H4O    2.292   -0.452   -1.112   Ho   165      3NA   0.444000
  3543   O3    1.990    0.240    1.251   Os   165      3NA  -0.467000
  3544   C1   -1.441   -0.715    1.062   Cg   166      3NB   0.422000
  3545   H1   -1.040   -0.594    2.070   H2   166      3NB   0.000000
  3546   O5   -1.348    0.564    0.343   Os   166      3NB  -0.507000
  3547   C5    0.040    1.031    0.018   Cg   166      3NB   0.198000
  3548   H5    0.578    1.193    0.953   H1   166      3NB   0.000000
  3549   C6   -0.032    2.373   -0.736   Cg   166      3NB   0.313000
  3550  H62   -0.561    2.249   -1.681   H1   166      3NB   0.000000
  3551  H61    0.969    2.751   -0.947   H1   166      3NB   0.000000
  3552   O6   -0.732    3.333    0.074   Oh   166      3NB  -0.689000
  3553  H6O   -1.534    2.912    0.398   Ho   166      3NB   0.418000
  3554   C4    0.753   -0.075   -0.796   Cg   166      3NB   0.286000
  3555   H4    0.224   -0.209   -1.741   H1   166      3NB   0.000000
  3556   O4    2.113    0.313   -1.102   Oh   166      3NB  -0.707000
  3557  H4O    2.667    0.085   -0.344   Ho   166      3NB   0.430000
  3558   C3    0.756   -1.420   -0.034   Cg   166      3NB   0.234000
  3559   H3    1.230   -2.189   -0.647   H1   166      3NB   0.000000
  3560   C2   -0.693   -1.844    0.290   Cg   166      3NB   0.301000
  3561   H2   -1.213   -2.032   -0.653   H1   166      3NB   0.000000
  3562   O2   -0.670   -3.090    1.046   Oh   166      3NB  -0.703000
  3563  H2O   -1.581   -3.356    1.224   Ho   166      3NB   0.424000
  3564   O3    1.514   -1.282    1.204   Os   166      3NB  -0.420000
  3565   C1   -0.785   -0.285    1.709   Cg   167      3OA   0.305000
  3566   H1   -1.706   -0.626    2.182   H2   167      3OA   0.000000
  3567   C2   -0.133   -1.478    0.937   Cg   167      3OA   0.413000
  3568   H2   -0.896   -1.971    0.334   H1   167      3OA   0.000000
  3569   O2    0.382   -2.452    1.902   Oh   167      3OA  -0.771000
  3570  H2O    0.699   -1.933    2.652   Ho   167      3OA   0.431000
  3571   C3    1.009   -0.983    0.016   Cg   167      3OA   0.251000
  3572   H3    1.782   -0.533    0.643   H1   167      3OA   0.000000
  3573   C4    0.483    0.106   -0.954   Cg   167      3OA   0.267000
  3574   H4    1.291    0.428   -1.613   H1   167      3OA   0.000000
  3575   C5   -0.037    1.312   -0.149   Cg   167      3OA   0.054000
  3576   H5    0.786    1.724    0.438   H1   167      3OA   0.000000
  3577   C6   -0.463    2.396   -1.196    C   167      3OA   0.896000
  3578  O6A    0.326    3.354   -1.361   O2   167      3OA  -0.822000
  3579  O6B   -1.506    2.178   -1.859   O2   167      3OA  -0.822000
  3580   O5   -1.105    0.839    0.816   Os   167      3OA  -0.424000
  3581   O4   -0.619   -0.387   -1.767   Oh   167      3OA  -0.704000
  3582  H4O   -1.146    0.397   -2.031   Ho   167      3OA   0.429000
  3583   O3    1.641   -2.087   -0.699   Os   167      3OA  -0.503000
  3584   C1   -1.436   -0.412    1.179   Cg   168      3OB   0.301000
  3585   H1   -1.026   -0.315    2.186   H2   168      3OB   0.000000
  3586   O5   -1.349    0.885    0.511   Os   168      3OB  -0.414000
  3587   C5    0.034    1.368    0.162   Cg   168      3OB   0.049000
  3588   H5    0.585    1.432    1.103   H1   168      3OB   0.000000
  3589   C6    0.191    2.794   -0.485    C   168      3OB   0.838000
  3590  O6B    1.353    3.122   -0.831   O2   168      3OB  -0.794000
  3591  O6A   -0.809    3.550   -0.525   O2   168      3OB  -0.794000
  3592   C4    0.737    0.309   -0.704   Cg   168      3OB   0.260000
  3593   H4    1.769    0.609   -0.893   H1   168      3OB   0.000000
  3594   O4    0.052    0.187   -1.976   Oh   168      3OB  -0.661000
  3595  H4O    0.452   -0.547   -2.451   Ho   168      3OB   0.402000
  3596   C3    0.749   -1.066    0.008   Cg   168      3OB   0.259000
  3597   H3    1.333   -0.967    0.925   H1   168      3OB   0.000000
  3598   C2   -0.683   -1.528    0.392   Cg   168      3OB   0.383000
  3599   H2   -1.240   -1.777   -0.512   H1   168      3OB   0.000000
  3600   O2   -0.622   -2.708    1.250   Oh   168      3OB  -0.732000
  3601  H2O   -1.527   -2.902    1.511   Ho   168      3OB   0.401000
  3602   O3    1.438   -2.033   -0.851   Os   168      3OB  -0.498000
  3603   C2   -0.926    0.826    0.512   Cg   169      3PA   0.417000
  3604   C1   -2.379    0.816    1.026   Cg   169      3PA   0.327000
  3605  H12   -2.400    0.849    2.116   H1   169      3PA   0.000000
  3606  H11   -2.922    1.684    0.650   H1   169      3PA   0.000000
  3607   O1   -3.051   -0.373    0.585   Oh   169      3PA  -0.644000
  3608  H1O   -2.593   -1.145    0.926   Ho   169      3PA   0.393000
  3609   C3   -0.047   -0.363    1.002   Cg   169      3PA   0.150000
  3610   H3   -0.592   -1.281    0.776   H1   169      3PA   0.000000
  3611   C4    1.324   -0.499    0.307   Cg   169      3PA   0.394000
  3612   H4    1.810   -1.426    0.615   H1   169      3PA   0.000000
  3613   C5    1.102   -0.502   -1.218   Cg   169      3PA   0.153000
  3614   H5    0.546   -1.402   -1.484   H1   169      3PA   0.000000
  3615   C6    0.311    0.718   -1.716   Cg   169      3PA   0.393000
  3616  H6E    0.101    0.625   -2.782   H1   169      3PA   0.000000
  3617  H6A    0.877    1.637   -1.558   H1   169      3PA   0.000000
  3618   O6   -0.970    0.800   -0.975   Os   169      3PA  -0.598000
  3619   O5    2.365   -0.547   -1.901   Oh   169      3PA  -0.693000
  3620  H5O    2.857   -1.320   -1.614   Ho   169      3PA   0.428000
  3621   O4    2.169    0.615    0.674   Oh   169      3PA  -0.702000
  3622  H4O    2.294    0.620    1.626   Ho   169      3PA   0.432000
  3623   O3    0.123   -0.332    2.432   Os   169      3PA  -0.450000
  3624   C2   -1.483   -0.133    0.318   Cg   170      3PB   0.407000
  3625   C1   -1.087    0.045    1.828   Cg   170      3PB   0.379000
  3626  H12   -1.315   -0.865    2.384   H1   170      3PB   0.000000
  3627  H11   -0.018    0.228    1.921   H1   170      3PB   0.000000
  3628   O1   -1.777    1.155    2.462   Oh   170      3PB  -0.720000
  3629  H1O   -1.488    1.231    3.375   Ho   170      3PB   0.410000
  3630   O6   -1.315    1.120   -0.449   Os   170      3PB  -0.540000
  3631   C6    0.072    1.537   -0.771   Cg   170      3PB   0.364000
  3632  H6E    0.040    2.462   -1.347   H1   170      3PB   0.000000
  3633  H6A    0.620    1.731    0.153   H1   170      3PB   0.000000
  3634   C5    0.751    0.425   -1.591   Cg   170      3PB   0.188000
  3635   H5    0.214    0.325   -2.536   H1   170      3PB   0.000000
  3636   O5    2.127    0.783   -1.900   Oh   170      3PB  -0.705000
  3637  H5O    2.685    0.516   -1.157   Ho   170      3PB   0.433000
  3638   C4    0.696   -0.930   -0.848   Cg   170      3PB   0.328000
  3639   H4    1.084   -1.712   -1.503   H1   170      3PB   0.000000
  3640   O4    1.539   -0.871    0.334   Oh   170      3PB  -0.698000
  3641  H4O    1.449   -1.729    0.771   Ho   170      3PB   0.427000
  3642   C3   -0.749   -1.292   -0.429   Cg   170      3PB   0.180000
  3643   H3   -1.292   -1.492   -1.355   H1   170      3PB   0.000000
  3644   O3   -0.753   -2.534    0.342   Os   170      3PB  -0.453000
  3645   C1   -0.678    1.441   -1.194   Cg   171      3QA   0.465000
  3646   H1   -0.443    2.288   -1.839   H1   171      3QA   0.000000
  3647   C2   -0.292    0.114   -1.907   Cg   171      3QA   0.281000
  3648   H2    0.749    0.198   -2.223   H1   171      3QA   0.000000
  3649   O2   -1.107   -0.063   -3.110   Oh   171      3QA  -0.695000
  3650  H2O   -2.039   -0.069   -2.866   Ho   171      3QA   0.422000
  3651   C3   -0.412   -1.088   -0.935   Cg   171      3QA   0.312000
  3652   H3   -1.466   -1.268   -0.715   H1   171      3QA   0.000000
  3653   C4    0.360   -0.848    0.387   Cg   171      3QA   0.208000
  3654   H4    1.432   -0.834    0.179   H1   171      3QA   0.000000
  3655   C5   -0.042    0.488    1.054   Cg   171      3QA   0.234000
  3656   H5   -1.078    0.418    1.393   H1   171      3QA   0.000000
  3657   C6    0.830    0.877    2.250   Cg   171      3QA   0.060000
  3658  H63    1.880    0.971    1.970   Hc   171      3QA   0.000000
  3659  H62    0.768    0.136    3.048   Hc   171      3QA   0.000000
  3660  H61    0.516    1.832    2.675   Hc   171      3QA   0.000000
  3661   O5    0.051    1.599    0.069   Os   171      3QA  -0.559000
  3662   O4    0.078   -1.938    1.310   Oh   171      3QA  -0.664000
  3663  H4O    0.749   -1.974    2.000   Ho   171      3QA   0.403000
  3664   O3    0.145   -2.280   -1.546   Os   171      3QA  -0.467000
  3665   C1   -1.445   -0.519    1.215   Cg   172      3QB   0.391000
  3666   H1   -0.977   -0.343    2.185   H1   172      3QB   0.000000
  3667   O5   -1.418    0.712    0.429   Os   172      3QB  -0.535000
  3668   C5   -0.064    1.215    0.079   Cg   172      3QB   0.271000
  3669   H5    0.472    1.430    1.006   H1   172      3QB   0.000000
  3670   C6   -0.253    2.525   -0.688   Cg   172      3QB   0.048000
  3671  H63   -0.792    2.371   -1.624   Hc   172      3QB   0.000000
  3672  H62    0.705    2.987   -0.932   Hc   172      3QB   0.000000
  3673  H61   -0.818    3.250   -0.100   Hc   172      3QB   0.000000
  3674   C4    0.699    0.125   -0.712   Cg   172      3QB   0.250000
  3675   H4    0.233   -0.001   -1.691   H1   172      3QB   0.000000
  3676   O4    2.072    0.555   -0.898   Oh   172      3QB  -0.713000
  3677  H4O    2.552   -0.168   -1.323   Ho   172      3QB   0.421000
  3678   C3    0.688   -1.230    0.039   Cg   172      3QB   0.300000
  3679   H3    1.303   -1.143    0.938   H1   172      3QB   0.000000
  3680   C2   -0.736   -1.670    0.449   Cg   172      3QB   0.323000
  3681   H2   -1.312   -1.916   -0.446   H1   172      3QB   0.000000
  3682   O2   -0.646   -2.860    1.290   Oh   172      3QB  -0.713000
  3683  H2O   -1.534   -3.071    1.606   Ho   172      3QB   0.420000
  3684   O3    1.272   -2.246   -0.821   Os   172      3QB  -0.463000
  3685   C1   -1.462    0.902    0.636   Cg   173      3RA   0.488000
  3686   H1   -2.496    0.853    0.976   H2   173      3RA   0.000000
  3687   C2   -0.700   -0.336    1.167   Cg   173      3RA   0.253000
  3688   H2   -1.305   -1.206    0.907   H1   173      3RA   0.000000
  3689   O2   -0.622   -0.307    2.603   Oh   173      3RA  -0.711000
  3690  H2O   -0.094    0.446    2.878   Ho   173      3RA   0.419000
  3691   C3    0.695   -0.561    0.550   Cg   173      3RA   0.345000
  3692   H3    1.102   -1.517    0.884   H1   173      3RA   0.000000
  3693   C4    0.553   -0.554   -0.986   Cg   173      3RA   0.122000
  3694   H4   -0.034   -1.425   -1.281   H1   173      3RA   0.000000
  3695   C5   -0.146    0.704   -1.527   Cg   173      3RA   0.377000
  3696  H5E   -0.312    0.614   -2.600   H1   173      3RA   0.000000
  3697  H5A    0.464    1.590   -1.349   H1   173      3RA   0.000000
  3698   O5   -1.454    0.867   -0.847   Os   173      3RA  -0.561000
  3699   O4    1.846   -0.667   -1.602   Oh   173      3RA  -0.663000
  3700  H4O    2.377    0.099   -1.372   Ho   173      3RA   0.419000
  3701   O3    1.586    0.498    0.963   Os   173      3RA  -0.488000
  3702   C1   -1.598   -0.083    0.890   Cg   174      3RB   0.481000
  3703   H1   -1.269   -0.008    1.927   H2   174      3RB   0.000000
  3704   O5   -1.486    1.228    0.234   Os   174      3RB  -0.576000
  3705   C5   -0.097    1.717    0.021   Cg   174      3RB   0.335000
  3706  H5E   -0.133    2.646   -0.548   H1   174      3RB   0.000000
  3707  H5A    0.361    1.931    0.988   H1   174      3RB   0.000000
  3708   C4    0.724    0.654   -0.751   Cg   174      3RB   0.236000
  3709   H4    0.289    0.536   -1.744   H1   174      3RB   0.000000
  3710   O4    2.098    1.097   -0.922   Oh   174      3RB  -0.695000
  3711  H4O    2.542    0.563   -1.588   Ho   174      3RB   0.411000
  3712   C3    0.687   -0.710   -0.020   Cg   174      3RB   0.203000
  3713   H3    1.253   -1.448   -0.591   H1   174      3RB   0.000000
  3714   C2   -0.789   -1.165    0.104   Cg   174      3RB   0.385000
  3715   H2   -1.207   -1.236   -0.903   H1   174      3RB   0.000000
  3716   O2   -0.880   -2.496    0.696   Oh   174      3RB  -0.732000
  3717  H2O   -1.801   -2.672    0.915   Ho   174      3RB   0.414000
  3718   O3    1.305   -0.554    1.293   Os   174      3RB  -0.462000
  3719   C1   -0.864    0.976    1.508   Cg   175      3TA   0.456000
  3720   H1   -1.827    0.988    2.021   H2   175      3TA   0.000000
  3721   C2   -0.002   -0.172    2.071   Cg   175      3TA   0.245000
  3722   H2    0.350    0.079    3.072   H1   175      3TA   0.000000
  3723   O2   -0.868   -1.318    2.177   Oh   175      3TA  -0.655000
  3724  H2O   -1.611   -1.106    2.746   Ho   175      3TA   0.436000
  3725   C3    1.203   -0.492    1.158   Cg   175      3TA   0.124000
  3726   H3    1.887    0.354    1.234   H1   175      3TA   0.000000
  3727   C4    0.861   -0.655   -0.337   Cg   175      3TA   0.434000
  3728   H4    1.781   -0.748   -0.916   H1   175      3TA   0.000000
  3729   C5    0.066    0.575   -0.827   Cg   175      3TA   0.157000
  3730   H5    0.721    1.445   -0.738   H1   175      3TA   0.000000
  3731   C6   -0.413    0.497   -2.283   Cg   175      3TA   0.304000
  3732  H62    0.424    0.271   -2.944   H1   175      3TA   0.000000
  3733  H61   -1.169   -0.280   -2.403   H1   175      3TA   0.000000
  3734   O6   -0.971    1.764   -2.656   Oh   175      3TA  -0.669000
  3735  H6O   -0.303    2.448   -2.564   Ho   175      3TA   0.401000
  3736   O5   -1.113    0.790    0.055   Os   175      3TA  -0.480000
  3737   O4    0.066   -1.841   -0.542   Oh   175      3TA  -0.731000
  3738  H4O   -0.138   -1.932   -1.476   Ho   175      3TA   0.417000
  3739   O3    1.920   -1.642    1.644   Os   175      3TA  -0.439000
  3740   C1   -1.466    0.211    1.293   Cg   176      3TB   0.306000
  3741   H1   -1.221    1.160    1.771   H2   176      3TB   0.000000
  3742   O5   -1.294    0.370   -0.169   Os   176      3TB  -0.354000
  3743   C5    0.066    0.793   -0.596   Cg   176      3TB   0.031000
  3744   H5    0.304    1.731   -0.091   H1   176      3TB   0.000000
  3745   C6    0.049    1.068   -2.106   Cg   176      3TB   0.349000
  3746  H62   -0.301    0.193   -2.657   H1   176      3TB   0.000000
  3747  H61    1.050    1.320   -2.456   H1   176      3TB   0.000000
  3748   O6   -0.828    2.173   -2.366   Oh   176      3TB  -0.666000
  3749  H6O   -1.711    1.959   -2.055   Ho   176      3TB   0.406000
  3750   C4    1.101   -0.259   -0.132   Cg   176      3TB   0.314000
  3751   H4    2.109    0.114   -0.322   H1   176      3TB   0.000000
  3752   O4    0.912   -1.470   -0.893   Oh   176      3TB  -0.626000
  3753  H4O    1.024   -1.282   -1.827   Ho   176      3TB   0.413000
  3754   C3    0.931   -0.546    1.379   Cg   176      3TB   0.174000
  3755   H3    1.216    0.366    1.906   H1   176      3TB   0.000000
  3756   C2   -0.511   -0.884    1.818   Cg   176      3TB   0.340000
  3757   H2   -0.566   -0.936    2.906   H1   176      3TB   0.000000
  3758   O2   -0.903   -2.160    1.267   Oh   176      3TB  -0.637000
  3759  H2O   -1.808   -2.352    1.521   Ho   176      3TB   0.397000
  3760   O3    1.846   -1.570    1.808   Os   176      3TB  -0.447000
  3761   C1   -1.900    0.275    0.290   Cg   177      3UA   0.363000
  3762   H1   -1.875    1.165   -0.339   H2   177      3UA   0.000000
  3763   C2   -1.430   -0.978   -0.509   Cg   177      3UA   0.259000
  3764   H2   -1.707   -1.874    0.051   H1   177      3UA   0.000000
  3765   O2   -2.102   -1.017   -1.814   Oh   177      3UA  -0.685000
  3766  H2O   -1.790   -0.298   -2.369   Ho   177      3UA   0.385000
  3767   C3    0.114   -0.961   -0.694   Cg   177      3UA   0.417000
  3768   H3    0.371   -0.201   -1.434   H1   177      3UA   0.000000
  3769   C4    0.891   -0.660    0.614   Cg   177      3UA   0.223000
  3770   H4    0.701   -1.469    1.323   H1   177      3UA   0.000000
  3771   C5    0.396    0.659    1.239   Cg   177      3UA   0.232000
  3772   H5    0.866    0.754    2.219   H1   177      3UA   0.000000
  3773   C6    0.896    1.917    0.403    C   177      3UA   0.697000
  3774  O6A    0.039    2.724   -0.024   O2   177      3UA  -0.757000
  3775  O6B    2.126    1.997    0.170   O2   177      3UA  -0.757000
  3776   O5   -1.078    0.498    1.482   Os   177      3UA  -0.515000
  3777   O4    2.330   -0.612    0.368   Oh   177      3UA  -0.711000
  3778  H4O    2.571    0.329    0.207   Ho   177      3UA   0.397000
  3779   O3    0.580   -2.249   -1.184   Os   177      3UA  -0.548000
  3780   C1    0.196    0.486    1.870   Cg   178      3UB   0.278000
  3781   H1    0.738    0.783    2.768   H2   178      3UB   0.000000
  3782   O5    0.234    1.605    0.905   Os   178      3UB  -0.430000
  3783   C5   -0.321    1.360   -0.481   Cg   178      3UB   0.194000
  3784   H5   -0.034    2.221   -1.086   H1   178      3UB   0.000000
  3785   C6   -1.893    1.264   -0.618    C   178      3UB   0.750000
  3786  O6B   -2.362    0.961   -1.742   O2   178      3UB  -0.783000
  3787  O6A   -2.576    1.466    0.411   O2   178      3UB  -0.783000
  3788   C4    0.381    0.121   -1.083   Cg   178      3UB   0.308000
  3789   H4    1.435    0.373   -1.219   H1   178      3UB   0.000000
  3790   O4   -0.154   -0.215   -2.395   Oh   178      3UB  -0.745000
  3791  H4O   -1.088    0.103   -2.413   Ho   178      3UB   0.422000
  3792   C3    0.301   -1.109   -0.140   Cg   178      3UB   0.286000
  3793   H3   -0.737   -1.424   -0.026   H1   178      3UB   0.000000
  3794   C2    0.904   -0.747    1.236   Cg   178      3UB   0.289000
  3795   H2    1.948   -0.473    1.080   H1   178      3UB   0.000000
  3796   O2    0.903   -1.906    2.116   Oh   178      3UB  -0.680000
  3797  H2O    1.060   -2.665    1.542   Ho   178      3UB   0.422000
  3798   O3    1.065   -2.206   -0.726   Os   178      3UB  -0.528000
  3799   C1   -0.565    1.341   -0.009   Cg   179      3VA   0.389000
  3800   H1   -0.379    2.143   -0.723   H2   179      3VA   0.000000
  3801   C2   -0.185   -0.022   -0.676   Cg   179      3VA   0.399000
  3802   H2    0.827    0.080   -1.076   H1   179      3VA   0.000000
  3803   N2   -1.089   -0.355   -1.803   Ng   179      3VA  -0.595000
  3804  H2N   -1.961   -0.806   -1.579    H   179      3VA   0.238000
  3805  C2N   -0.927    0.151   -3.029    C   179      3VA   0.625000
  3806  CME   -2.009   -0.209   -4.065   Cg   179      3VA   0.032000
  3807  H3M   -3.000   -0.007   -3.658   Hc   179      3VA   0.000000
  3808  H2M   -1.876    0.385   -4.971   Hc   179      3VA   0.000000
  3809  H1M   -1.933   -1.267   -4.322   Hc   179      3VA   0.000000
  3810  O2N    0.033    0.859   -3.316    O   179      3VA  -0.605000
  3811   C3   -0.169   -1.165    0.373   Cg   179      3VA   0.176000
  3812   H3   -1.184   -1.304    0.747   H1   179      3VA   0.000000
  3813   C4    0.740   -0.822    1.577   Cg   179      3VA   0.326000
  3814   H4    0.664   -1.617    2.320   H1   179      3VA   0.000000
  3815   C5    0.323    0.520    2.225   Cg   179      3VA   0.112000
  3816   H5   -0.680    0.377    2.629   H1   179      3VA   0.000000
  3817   C6    1.206    0.965    3.410   Cg   179      3VA   0.362000
  3818  H62    0.809    1.879    3.852   H1   179      3VA   0.000000
  3819  H61    1.205    0.191    4.178   H1   179      3VA   0.000000
  3820   O6    2.557    1.199    2.987   Oh   179      3VA  -0.711000
  3821  H6O    2.714    0.621    2.222   Ho   179      3VA   0.424000
  3822   O5    0.233    1.605    1.197   Os   179      3VA  -0.466000
  3823   O4    2.115   -0.754    1.123   Oh   179      3VA  -0.701000
  3824  H4O    2.271   -1.548    0.590   Ho   179      3VA   0.442000
  3825   O3    0.262   -2.438   -0.203   Os   179      3VA  -0.447000
  3826   C1   -1.160    0.498    0.889   Cg   180      3VB   0.305000
  3827   H1   -0.714    0.612    1.878   H2   180      3VB   0.000000
  3828   O5   -1.057    1.786    0.185   Os   180      3VB  -0.408000
  3829   C5    0.327    2.246   -0.146   Cg   180      3VB   0.136000
  3830   H5    0.859    2.414    0.792   H1   180      3VB   0.000000
  3831   C6    0.265    3.582   -0.907   Cg   180      3VB   0.353000
  3832  H62   -0.346    3.491   -1.805   H1   180      3VB   0.000000
  3833  H61    1.268    3.897   -1.201   H1   180      3VB   0.000000
  3834   O6   -0.302    4.582   -0.047   Oh   180      3VB  -0.714000
  3835  H6O   -1.178    4.281    0.213   Ho   180      3VB   0.427000
  3836   C4    1.085    1.147   -0.922   Cg   180      3VB   0.253000
  3837   H4    2.124    1.452   -1.055   H1   180      3VB   0.000000
  3838   O4    0.489    0.975   -2.227   Oh   180      3VB  -0.690000
  3839  H4O    0.798    0.132   -2.589   Ho   180      3VB   0.440000
  3840   C3    1.042   -0.201   -0.171   Cg   180      3VB   0.152000
  3841   H3    1.547   -0.071    0.789   H1   180      3VB   0.000000
  3842   C2   -0.424   -0.647    0.111   Cg   180      3VB   0.544000
  3843   H2   -0.936   -0.789   -0.842   H1   180      3VB   0.000000
  3844   N2   -0.444   -1.913    0.880   Ng   180      3VB  -0.686000
  3845  H2N   -0.217   -1.875    1.858    H   180      3VB   0.254000
  3846  C2N   -0.784   -3.084    0.335    C   180      3VB   0.586000
  3847  O2N   -1.100   -3.193   -0.845    O   180      3VB  -0.564000
  3848  CME   -0.745   -4.310    1.272   Cg   180      3VB   0.056000
  3849  H3M   -1.057   -4.033    2.281   Hc   180      3VB   0.000000
  3850  H2M   -1.418   -5.084    0.900   Hc   180      3VB   0.000000
  3851  H1M    0.270   -4.708    1.306   Hc   180      3VB   0.000000
  3852   O3    1.808   -1.186   -0.932   Os   180      3VB  -0.444000
  3853   C1   -1.511    1.168   -0.366   Cg   181      3WA   0.462100
  3854   H1   -1.369    2.002   -1.053   H2   181      3WA   0.000000
  3855   C2   -1.080   -0.157   -1.054   Cg   181      3WA   0.275000
  3856   H2   -1.789   -0.370   -1.856   H1   181      3WA   0.000000
  3857   N2    0.258   -0.028   -1.677   Ng   181      3WA  -0.475100
  3858  H2N    1.019   -0.536   -1.256    H   181      3WA   0.214200
  3859  C2N    0.491    0.652   -2.803    C   181      3WA   0.590900
  3860  CME    1.942    0.618   -3.315   Cg   181      3WA  -0.034000
  3861  H3M    2.609    1.044   -2.564   Hc   181      3WA   0.000000
  3862  H2M    2.032    1.198   -4.235   Hc   181      3WA   0.000000
  3863  H1M    2.240   -0.412   -3.517   Hc   181      3WA   0.000000
  3864  O2N   -0.391    1.281   -3.384    O   181      3WA  -0.575700
  3865   C3   -1.129   -1.321   -0.033   Cg   181      3WA   0.252000
  3866   H3   -2.170   -1.480    0.255   H1   181      3WA   0.000000
  3867   C4   -0.305   -1.021    1.245   Cg   181      3WA   0.321300
  3868   H4    0.753   -1.024    0.980   H1   181      3WA   0.000000
  3869   C5   -0.668    0.341    1.882   Cg   181      3WA   0.242100
  3870   H5   -1.669    0.255    2.311   H1   181      3WA   0.000000
  3871   C6    0.280    0.759    3.028   Cg   181      3WA   0.299500
  3872  H62    0.036    1.770    3.353   H1   181      3WA   0.000000
  3873  H61    0.147    0.094    3.881   H1   181      3WA   0.000000
  3874   O6    1.665    0.719    2.626   Oh   181      3WA  -0.661800
  3875  H6O    2.000   -0.179    2.700   Ho   181      3WA   0.395900
  3876   O5   -0.731    1.423    0.852   Os   181      3WA  -0.541500
  3877   O4   -0.536   -2.072    2.229   Oh   181      3WA  -0.730500
  3878  H4O   -1.476   -2.172    2.414   Ho   181      3WA   0.442400
  3879   O3   -0.647   -2.550   -0.644   Os   181      3WA  -0.476800
  3880   C1   -0.955   -0.039    1.762   Cg   182      3WB   0.387000
  3881   H1   -0.473    0.051    2.737   H2   182      3WB   0.000000
  3882   O5   -0.902    1.256    1.081   Os   182      3WB  -0.498000
  3883   C5    0.482    1.772    0.835   Cg   182      3WB   0.321000
  3884   H5    0.964    1.923    1.803   H1   182      3WB   0.000000
  3885   C6    0.386    3.133    0.117   Cg   182      3WB   0.247000
  3886  H62   -0.092    3.011   -0.856   H1   182      3WB   0.000000
  3887  H61    1.380    3.552   -0.041   H1   182      3WB   0.000000
  3888   O6   -0.389    4.061    0.903   Oh   182      3WB  -0.663000
  3889  H6O   -1.255    3.678    1.074   Ho   182      3WB   0.413000
  3890   C4    1.296    0.731    0.027   Cg   182      3WB   0.277000
  3891   H4    0.912    0.685   -0.995   H1   182      3WB   0.000000
  3892   O4    2.681    1.148   -0.017   Oh   182      3WB  -0.743000
  3893  H4O    3.193    0.418   -0.393   Ho   182      3WB   0.439000
  3894   C3    1.218   -0.681    0.665   Cg   182      3WB   0.217000
  3895   H3    1.723   -0.657    1.632   H1   182      3WB   0.000000
  3896   C2   -0.246   -1.129    0.906   Cg   182      3WB   0.294000
  3897   H2   -0.224   -2.051    1.491   H1   182      3WB   0.000000
  3898   N2   -0.956   -1.404   -0.369   Ng   182      3WB  -0.558000
  3899  H2N   -1.469   -0.645   -0.787    H   182      3WB   0.265000
  3900  C2N   -0.978   -2.604   -0.958    C   182      3WB   0.585000
  3901  O2N   -0.331   -3.548   -0.510    O   182      3WB  -0.600000
  3902  CME   -1.821   -2.730   -2.245   Cg   182      3WB   0.056000
  3903  H3M   -2.502   -1.884   -2.356   Hc   182      3WB   0.000000
  3904  H2M   -2.410   -3.648   -2.214   Hc   182      3WB   0.000000
  3905  H1M   -1.156   -2.763   -3.108   Hc   182      3WB   0.000000
  3906   O3    1.925   -1.635   -0.181   Os   182      3WB  -0.439000
  3907   C1   -0.611    1.546   -0.796   Cg   183      3XA   0.482000
  3908   H1   -0.460    2.329   -1.539   H2   183      3XA   0.000000
  3909   C2   -0.163    0.178   -1.376   Cg   183      3XA   0.197000
  3910   H2    0.849    0.297   -1.764   H1   183      3XA   0.000000
  3911   O2   -1.023   -0.226   -2.490   Oh   183      3XA  -0.656000
  3912  H2O   -1.938    0.010   -2.288   Ho   183      3XA   0.409000
  3913   C3   -0.144   -0.912   -0.284   Cg   183      3XA   0.359000
  3914   H3   -1.168   -1.139    0.020   H1   183      3XA   0.000000
  3915   C4    0.686   -0.488    0.950   Cg   183      3XA   0.247000
  3916   H4    1.737   -0.400    0.672   H1   183      3XA   0.000000
  3917   C5    0.198    0.867    1.493   Cg   183      3XA   0.335000
  3918  H5E    0.869    1.218    2.277   H1   183      3XA   0.000000
  3919  H5A   -0.798    0.761    1.927   H1   183      3XA   0.000000
  3920   O5    0.144    1.888    0.410   Os   183      3XA  -0.588000
  3921   O4    0.562   -1.481    2.004   Oh   183      3XA  -0.720000
  3922  H4O    0.812   -2.339    1.635   Ho   183      3XA   0.420000
  3923   O3    0.448   -2.109   -0.852   Os   183      3XA  -0.485000
  3924   C1   -1.511    0.019    1.049   Cg   184      3XB   0.248000
  3925   H1   -1.046    0.162    2.025   H2   184      3XB   0.000000
  3926   O5   -1.445    1.279    0.303   Os   184      3XB  -0.447000
  3927   C5   -0.079    1.731   -0.051   Cg   184      3XB   0.303000
  3928  H5E   -0.147    2.656   -0.625   H1   184      3XB   0.000000
  3929  H5A    0.477    1.939    0.865   H1   184      3XB   0.000000
  3930   C4    0.633    0.644   -0.879   Cg   184      3XB   0.286000
  3931   H4    0.134    0.548   -1.845   H1   184      3XB   0.000000
  3932   O4    2.002    1.058   -1.100   Oh   184      3XB  -0.723000
  3933  H4O    2.461    0.322   -1.525   Ho   184      3XB   0.430000
  3934   C3    0.625   -0.721   -0.152   Cg   184      3XB   0.228000
  3935   H3    1.250   -0.652    0.740   H1   184      3XB   0.000000
  3936   C2   -0.808   -1.128    0.266   Cg   184      3XB   0.425000
  3937   H2   -1.394   -1.371   -0.623   H1   184      3XB   0.000000
  3938   O2   -0.730   -2.304    1.114   Oh   184      3XB  -0.699000
  3939  H2O   -1.613   -2.449    1.475   Ho   184      3XB   0.398000
  3940   O3    1.192   -1.732   -1.037   Os   184      3XB  -0.449000
  3941   C1   -0.690    1.573   -0.138   Cg   185      3YA   0.468000
  3942   H1   -0.520    2.415   -0.809   H2   185      3YA   0.000000
  3943   C2   -0.148    0.276   -0.812   Cg   185      3YA   0.245000
  3944   H2    0.872    0.491   -1.137   H1   185      3YA   0.000000
  3945   N2   -0.939   -0.072   -2.021   Ng   185      3YA  -0.552000
  3946  H2N   -1.913    0.190   -2.003    H   185      3YA   0.236000
  3947  C2N   -0.465   -0.753   -3.071    C   185      3YA   0.588000
  3948  CME   -1.411   -0.931   -4.279   Cg   185      3YA   0.063000
  3949  H3M   -2.364   -0.425   -4.115   Hc   185      3YA   0.000000
  3950  H2M   -0.941   -0.515   -5.171   Hc   185      3YA   0.000000
  3951  H1M   -1.598   -1.993   -4.438   Hc   185      3YA   0.000000
  3952  O2N    0.669   -1.225   -3.068    O   185      3YA  -0.579000
  3953   C3   -0.085   -0.910    0.179   Cg   185      3YA   0.165000
  3954   H3   -1.104   -1.226    0.413   H1   185      3YA   0.000000
  3955   C4    0.647   -0.539    1.489   Cg   185      3YA   0.322000
  3956   H4    1.710   -0.412    1.278   H1   185      3YA   0.000000
  3957   C5    0.087    0.747    2.136   Cg   185      3YA   0.246000
  3958   H5   -0.924    0.534    2.492   H1   185      3YA   0.000000
  3959   C6    0.913    1.214    3.353   Cg   185      3YA   0.328000
  3960  H62    0.883    0.458    4.138   H1   185      3YA   0.000000
  3961  H61    0.484    2.131    3.757   H1   185      3YA   0.000000
  3962   O6    2.291    1.463    2.999   Oh   185      3YA  -0.688000
  3963  H6O    2.772    1.757    3.776   Ho   185      3YA   0.421000
  3964   O5   -0.026    1.857    1.134   Os   185      3YA  -0.568000
  3965   O4    0.479   -1.635    2.419   Oh   185      3YA  -0.733000
  3966  H4O    0.703   -2.438    1.930   Ho   185      3YA   0.449000
  3967   O3    0.619   -2.031   -0.430   Os   185      3YA  -0.411000
  3968   C1   -1.220    0.413    0.815   Cg   186      3YB   0.287000
  3969   H1   -0.783    0.550    1.806   H2   186      3YB   0.000000
  3970   O5   -1.166    1.695    0.101   Os   186      3YB  -0.433000
  3971   C5    0.208    2.216   -0.165   Cg   186      3YB   0.208000
  3972   H5    0.707    2.372    0.794   H1   186      3YB   0.000000
  3973   C6    0.112    3.569   -0.895   Cg   186      3YB   0.289000
  3974  H62   -0.382    3.444   -1.860   H1   186      3YB   0.000000
  3975  H61    1.106    3.980   -1.069   H1   186      3YB   0.000000
  3976   O6   -0.642    4.499   -0.098   Oh   186      3YB  -0.689000
  3977  H6O   -1.493    4.102    0.107   Ho   186      3YB   0.424000
  3978   C4    0.989    1.161   -0.974   Cg   186      3YB   0.302000
  3979   H4    0.539    1.052   -1.963   H1   186      3YB   0.000000
  3980   O4    2.351    1.614   -1.129   Oh   186      3YB  -0.716000
  3981  H4O    2.837    0.896   -1.556   Ho   186      3YB   0.436000
  3982   C3    1.006   -0.211   -0.260   Cg   186      3YB   0.180000
  3983   H3    1.540   -0.109    0.687   H1   186      3YB   0.000000
  3984   C2   -0.440   -0.699    0.036   Cg   186      3YB   0.480000
  3985   H2   -0.948   -0.851   -0.919   H1   186      3YB   0.000000
  3986   N2   -0.424   -1.973    0.797   Ng   186      3YB  -0.722000
  3987  H2N   -0.239   -1.923    1.785    H   186      3YB   0.300000
  3988  C2N   -0.836   -3.136    0.284    C   186      3YB   0.648000
  3989  O2N   -1.147   -3.254   -0.896    O   186      3YB  -0.576000
  3990  CME   -0.854   -4.342    1.245   Cg   186      3YB   0.034000
  3991  H3M   -1.173   -4.034    2.242   Hc   186      3YB   0.000000
  3992  H2M   -1.544   -5.103    0.877   Hc   186      3YB   0.000000
  3993  H1M    0.148   -4.771    1.305   Hc   186      3YB   0.000000
  3994   O3    1.747   -1.155   -1.095   Os   186      3YB  -0.452000
  3995   C1   -0.987   -0.322    1.675   Cg   187      3ZA   0.398000
  3996   H1   -1.890   -0.653    2.190   H2   187      3ZA   0.000000
  3997   C2   -0.310   -1.534    0.983   Cg   187      3ZA   0.326000
  3998   H2   -1.071   -2.037    0.385   H1   187      3ZA   0.000000
  3999   O2    0.172   -2.486    1.989   Oh   187      3ZA  -0.732000
  4000  H2O    0.557   -1.969    2.708   Ho   187      3ZA   0.406000
  4001   C3    0.844   -1.107    0.045   Cg   187      3ZA   0.300000
  4002   H3    1.685   -0.770    0.656   H1   187      3ZA   0.000000
  4003   C4    0.441    0.033   -0.933   Cg   187      3ZA   0.193000
  4004   H4   -0.226   -0.368   -1.698   H1   187      3ZA   0.000000
  4005   C5   -0.273    1.216   -0.230   Cg   187      3ZA   0.187000
  4006   H5    0.469    1.691    0.415   H1   187      3ZA   0.000000
  4007   C6   -0.673    2.363   -1.266    C   187      3ZA   0.798000
  4008  O6A    0.134    2.614   -2.199   O2   187      3ZA  -0.787000
  4009  O6B   -1.737    2.994   -1.074   O2   187      3ZA  -0.787000
  4010   O5   -1.352    0.697    0.699   Os   187      3ZA  -0.544000
  4011   O4    1.627    0.564   -1.580   Oh   187      3ZA  -0.682000
  4012  H4O    1.332    1.365   -2.067   Ho   187      3ZA   0.422000
  4013   O3    1.256   -2.291   -0.699   Os   187      3ZA  -0.498000
  4014   C1   -1.566   -0.473    1.070   Cg   188      3ZB   0.251000
  4015   H1   -1.153   -0.337    2.070   H2   188      3ZB   0.000000
  4016   O5   -1.441    0.781    0.331   Os   188      3ZB  -0.413000
  4017   C5   -0.043    1.256    0.058   Cg   188      3ZB   0.075000
  4018   H5    0.447    1.373    1.027   H1   188      3ZB   0.000000
  4019   C6    0.107    2.659   -0.661    C   188      3ZB   0.893000
  4020  O6B    1.235    2.948   -1.135   O2   188      3ZB  -0.818000
  4021  O6A   -0.890    3.416   -0.698   O2   188      3ZB  -0.818000
  4022   C4    0.700    0.151   -0.720   Cg   188      3ZB   0.267000
  4023   H4    0.270    0.090   -1.721   H1   188      3ZB   0.000000
  4024   O4    2.096    0.522   -0.843   Oh   188      3ZB  -0.733000
  4025  H4O    2.091    1.483   -1.068   Ho   188      3ZB   0.429000
  4026   C3    0.616   -1.241   -0.040   Cg   188      3ZB   0.266000
  4027   H3    1.213   -1.223    0.874   H1   188      3ZB   0.000000
  4028   C2   -0.841   -1.630    0.325   Cg   188      3ZB   0.411000
  4029   H2   -1.389   -1.866   -0.589   H1   188      3ZB   0.000000
  4030   O2   -0.868   -2.793    1.203   Oh   188      3ZB  -0.740000
  4031  H2O   -1.785   -2.902    1.473   Ho   188      3ZB   0.422000
  4032   O3    1.202   -2.212   -0.958   Os   188      3ZB  -0.492000
  4033   C1   -1.361    1.018    0.586   Cg   189      4AA   0.448000
  4034   H1   -2.372    0.928    0.987   H2   189      4AA   0.000000
  4035   C2   -0.483   -0.116    1.167   Cg   189      4AA   0.268000
  4036   H2   -0.255    0.090    2.215   H1   189      4AA   0.000000
  4037   O2   -1.271   -1.317    1.127   Oh   189      4AA  -0.735000
  4038  H2O   -0.771   -2.041    1.509   Ho   189      4AA   0.443000
  4039   C3    0.820   -0.396    0.391   Cg   189      4AA   0.335000
  4040   H3    1.259   -1.340    0.719   H1   189      4AA   0.000000
  4041   O3    1.741    0.663    0.718   Oh   189      4AA  -0.772000
  4042  H3O    1.895    0.671    1.666   Ho   189      4AA   0.461000
  4043   C4    0.576   -0.432   -1.132   Cg   189      4AA   0.245000
  4044   H4   -0.020   -1.316   -1.366   H1   189      4AA   0.000000
  4045   C5   -0.172    0.802   -1.646   Cg   189      4AA   0.379000
  4046  H5E   -0.397    0.697   -2.707   H1   189      4AA   0.000000
  4047  H5A    0.425    1.705   -1.509   H1   189      4AA   0.000000
  4048   O5   -1.439    0.932   -0.893   Os   189      4AA  -0.564000
  4049   O4    1.825   -0.547   -1.832   Os   189      4AA  -0.508000
  4050   C1   -1.551   -0.049    0.845   Cg   190      4AB   0.379000
  4051   H1   -1.195    0.049    1.872   H2   190      4AB   0.000000
  4052   O5   -1.401    1.243    0.170   Os   190      4AB  -0.529000
  4053   C5    0.006    1.686   -0.002   Cg   190      4AB   0.356000
  4054  H5E    0.016    2.624   -0.558   H1   190      4AB   0.000000
  4055  H5A    0.446    1.872    0.979   H1   190      4AB   0.000000
  4056   C4    0.814    0.612   -0.765   Cg   190      4AB   0.224000
  4057   H4    0.410    0.535   -1.775   H1   190      4AB   0.000000
  4058   C3    0.700   -0.770   -0.071   Cg   190      4AB   0.297000
  4059   H3    1.221   -1.518   -0.671   H1   190      4AB   0.000000
  4060   O3    1.341   -0.715    1.233   Oh   190      4AB  -0.668000
  4061  H3O    2.203   -0.294    1.118   Ho   190      4AB   0.407000
  4062   C2   -0.773   -1.190    0.113   Cg   190      4AB   0.300000
  4063   H2   -0.829   -2.106    0.704   H1   190      4AB   0.000000
  4064   O2   -1.333   -1.463   -1.208   Oh   190      4AB  -0.700000
  4065  H2O   -2.290   -1.526   -1.104   Ho   190      4AB   0.418000
  4066   O4    2.212    1.011   -0.879   Os   190      4AB  -0.484000
  4067   C2   -0.781    0.373    0.965   Cg   191      4BA   0.130000
  4068   C1   -2.244    0.094    1.432   Cg   191      4BA   0.428000
  4069  H12   -2.238   -0.520    2.334   H1   191      4BA   0.000000
  4070  H11   -2.740    1.034    1.673   H1   191      4BA   0.000000
  4071   O1   -3.011   -0.594    0.422   Oh   191      4BA  -0.678000
  4072  H1O   -2.700   -1.502    0.392   Ho   191      4BA   0.399000
  4073   C3   -0.117   -0.879    0.317   Cg   191      4BA   0.372000
  4074   H3   -0.694   -1.157   -0.568   H1   191      4BA   0.000000
  4075   O3   -0.153   -2.020    1.222   Oh   191      4BA  -0.716000
  4076  H3O    0.426   -2.694    0.849   Ho   191      4BA   0.430000
  4077   C4    1.323   -0.560   -0.152   Cg   191      4BA   0.335000
  4078   H4    1.942   -0.289    0.706   H1   191      4BA   0.000000
  4079   C5    1.285    0.605   -1.173   Cg   191      4BA   0.224000
  4080   H5    0.747    0.287   -2.067   H1   191      4BA   0.000000
  4081   C6    0.575    1.848   -0.595   Cg   191      4BA   0.341000
  4082  H6E    0.426    2.591   -1.379   H1   191      4BA   0.000000
  4083  H6A    1.190    2.303    0.183   H1   191      4BA   0.000000
  4084   O6   -0.749    1.487   -0.012   Os   191      4BA  -0.507000
  4085   O5    2.635    0.985   -1.562   Oh   191      4BA  -0.690000
  4086  H5O    2.974    0.348   -2.199   Ho   191      4BA   0.429000
  4087   O4    1.904   -1.739   -0.788   Os   191      4BA  -0.497000
  4088   C2   -1.375   -0.065    0.356   Cg   192      4BB   0.227000
  4089   C1   -0.918    0.088    1.843   Cg   192      4BB   0.281000
  4090  H12   -1.187   -0.801    2.415   H1   192      4BB   0.000000
  4091  H11    0.165    0.199    1.894   H1   192      4BB   0.000000
  4092   O1   -1.522    1.239    2.472   Oh   192      4BB  -0.626000
  4093  H1O   -1.223    1.299    3.383   Ho   192      4BB   0.395000
  4094   O6   -1.210    1.203   -0.392   Os   192      4BB  -0.477000
  4095   C6    0.181    1.638   -0.679   Cg   192      4BB   0.311000
  4096  H6E    0.153    2.549   -1.278   H1   192      4BB   0.000000
  4097  H6A    0.686    1.866    0.260   H1   192      4BB   0.000000
  4098   C5    0.929    0.524   -1.441   Cg   192      4BB   0.340000
  4099   H5    0.511    0.438   -2.445   H1   192      4BB   0.000000
  4100   O5    2.323    0.887   -1.545   Oh   192      4BB  -0.720000
  4101  H5O    2.781    0.109   -1.888   Ho   192      4BB   0.429000
  4102   C4    0.845   -0.844   -0.727   Cg   192      4BB   0.108000
  4103   H4    1.411   -0.799    0.206   H1   192      4BB   0.000000
  4104   C3   -0.628   -1.206   -0.409   Cg   192      4BB   0.464000
  4105   H3   -1.148   -1.393   -1.351   H1   192      4BB   0.000000
  4106   O3   -0.647   -2.433    0.368   Oh   192      4BB  -0.730000
  4107  H3O   -1.576   -2.633    0.539   Ho   192      4BB   0.432000
  4108   O4    1.448   -1.864   -1.580   Os   192      4BB  -0.434000
  4109   C2   -0.760    0.267    1.104   Cg   193      4CA   0.345000
  4110   C1   -2.272   -0.012    1.406   Cg   193      4CA   0.386000
  4111  H12   -2.355   -0.843    2.108   H1   193      4CA   0.000000
  4112  H11   -2.729    0.863    1.873   H1   193      4CA   0.000000
  4113   O1   -3.030   -0.340    0.219   Oh   193      4CA  -0.696000
  4114  H1O   -2.461   -0.903   -0.325   Ho   193      4CA   0.402000
  4115   C3    0.021   -0.999    0.588   Cg   193      4CA   0.247000
  4116   H3    0.185   -1.676    1.429   H1   193      4CA   0.000000
  4117   O3   -0.757   -1.745   -0.406   Oh   193      4CA  -0.655000
  4118  H3O   -0.428   -2.650   -0.465   Ho   193      4CA   0.406000
  4119   C4    1.390   -0.658   -0.057   Cg   193      4CA   0.367000
  4120   H4    1.757   -1.537   -0.589   H1   193      4CA   0.000000
  4121   C5    1.291    0.513   -1.059   Cg   193      4CA   0.195000
  4122   H5    0.613    0.225   -1.864   H1   193      4CA   0.000000
  4123   C6    0.718    1.751   -0.350   Cg   193      4CA   0.437000
  4124  H6E    0.620    2.573   -1.059   H1   193      4CA   0.000000
  4125  H6A    1.375    2.079    0.456   H1   193      4CA   0.000000
  4126   O6   -0.623    1.434    0.200   Os   193      4CA  -0.620000
  4127   O5    2.594    0.795   -1.659   Oh   193      4CA  -0.709000
  4128  H5O    2.490    1.211   -2.522   Ho   193      4CA   0.415000
  4129   O4    2.362   -0.349    0.973   Os   193      4CA  -0.520000
  4130   C2   -1.319   -0.186    0.406   Cg   194      4CB   0.244000
  4131   C1   -0.912   -0.002    1.904   Cg   194      4CB   0.297000
  4132  H12   -1.088   -0.926    2.456   H1   194      4CB   0.000000
  4133  H11    0.146    0.238    1.990   H1   194      4CB   0.000000
  4134   O1   -1.657    1.066    2.534   Oh   194      4CB  -0.669000
  4135  H1O   -1.366    1.165    3.445   Ho   194      4CB   0.401000
  4136   O6   -1.163    1.079   -0.346   Os   194      4CB  -0.460000
  4137   C6    0.220    1.525   -0.637   Cg   194      4CB   0.365000
  4138  H6E    0.181    2.444   -1.221   H1   194      4CB   0.000000
  4139  H6A    0.739    1.740    0.299   H1   194      4CB   0.000000
  4140   C5    0.957    0.428   -1.427   Cg   194      4CB   0.195000
  4141   H5    0.458    0.320   -2.391   H1   194      4CB   0.000000
  4142   O5    2.332    0.831   -1.688   Oh   194      4CB  -0.684000
  4143  H5O    2.864    0.669   -0.899   Ho   194      4CB   0.415000
  4144   C4    0.914   -0.939   -0.701   Cg   194      4CB   0.344000
  4145   H4    1.331   -1.699   -1.363   H1   194      4CB   0.000000
  4146   C3   -0.530   -1.341   -0.304   Cg   194      4CB   0.317000
  4147   H3   -0.502   -2.214    0.350   H1   194      4CB   0.000000
  4148   O3   -1.209   -1.733   -1.528   Oh   194      4CB  -0.697000
  4149  H3O   -2.150   -1.569   -1.371   Ho   194      4CB   0.407000
  4150   O4    1.754   -0.897    0.492   Os   194      4CB  -0.475000
  4151   C1   -0.786    1.493   -0.561   Cg   195      4DA   0.398000
  4152   H1   -0.614    2.296   -1.279   H2   195      4DA   0.000000
  4153   C2   -0.295    0.145   -1.170   Cg   195      4DA   0.246000
  4154   H2   -0.959   -0.146   -1.986   H1   195      4DA   0.000000
  4155   O2    1.043    0.317   -1.721   Oh   195      4DA  -0.678000
  4156  H2O    1.021    0.877   -2.503   Ho   195      4DA   0.432000
  4157   C3   -0.292   -0.968   -0.093   Cg   195      4DA   0.184000
  4158   H3   -1.322   -1.119    0.234   H1   195      4DA   0.000000
  4159   O3    0.172   -2.238   -0.641   Oh   195      4DA  -0.655000
  4160  H3O   -0.252   -2.408   -1.487   Ho   195      4DA   0.417000
  4161   C4    0.557   -0.553    1.130   Cg   195      4DA   0.351000
  4162   H4    1.602   -0.435    0.841   H1   195      4DA   0.000000
  4163   C5    0.026    0.768    1.725   Cg   195      4DA   0.275000
  4164  H5E    0.690    1.115    2.516   H1   195      4DA   0.000000
  4165  H5A   -0.961    0.607    2.165   H1   195      4DA   0.000000
  4166   O5   -0.088    1.832    0.688   Os   195      4DA  -0.487000
  4167   O4    0.460   -1.583    2.141   Os   195      4DA  -0.483000
  4168   C1    0.872    0.910    1.349   Cg   196      4DB   0.448000
  4169   H1    1.057    1.857    0.839   H2   196      4DB   0.000000
  4170   O5   -0.573    0.814    1.654   Os   196      4DB  -0.519000
  4171   C5   -1.469    0.876    0.478   Cg   196      4DB   0.275000
  4172  H5E   -2.500    0.753    0.807   H1   196      4DB   0.000000
  4173  H5A   -1.374    1.862    0.017   H1   196      4DB   0.000000
  4174   C4   -1.096   -0.227   -0.529   Cg   196      4DB   0.335000
  4175   H4   -1.401   -1.198   -0.134   H1   196      4DB   0.000000
  4176   C3    0.414   -0.227   -0.846   Cg   196      4DB   0.201000
  4177   H3    0.662    0.678   -1.403   H1   196      4DB   0.000000
  4178   O3    0.739   -1.360   -1.673   Oh   196      4DB  -0.701000
  4179  H3O    0.224   -1.324   -2.482   Ho   196      4DB   0.432000
  4180   C2    1.283   -0.259    0.429   Cg   196      4DB   0.226000
  4181   H2    2.339   -0.180    0.166   H1   196      4DB   0.000000
  4182   O2    1.061   -1.503    1.131   Oh   196      4DB  -0.645000
  4183  H2O    1.584   -1.514    1.935   Ho   196      4DB   0.415000
  4184   O4   -1.822    0.042   -1.738   Os   196      4DB  -0.467000
  4185   C1   -0.848    0.938    1.383   Cg   197      4EA   0.480000
  4186   H1   -1.782    1.001    1.943   H2   197      4EA   0.000000
  4187   C2   -0.032   -0.270    1.895   Cg   197      4EA   0.179000
  4188   H2    0.385   -0.048    2.880   H1   197      4EA   0.000000
  4189   O2   -0.955   -1.360    2.055   Oh   197      4EA  -0.690000
  4190  H2O   -1.652   -1.104    2.663   Ho   197      4EA   0.447000
  4191   C3    1.084   -0.748    0.946   Cg   197      4EA   0.328000
  4192   H3    1.458   -1.721    1.268   H1   197      4EA   0.000000
  4193   O3    2.161    0.204    1.054   Oh   197      4EA  -0.714000
  4194  H3O    2.461    0.246    1.965   Ho   197      4EA   0.420000
  4195   C4    0.596   -0.831   -0.516   Cg   197      4EA   0.261000
  4196   H4   -0.124   -1.648   -0.589   H1   197      4EA   0.000000
  4197   C5   -0.083    0.464   -1.003   Cg   197      4EA   0.374000
  4198   H5    0.645    1.278   -0.991   H1   197      4EA   0.000000
  4199   C6   -0.696    0.358   -2.406   Cg   197      4EA   0.259000
  4200  H62    0.060    0.056   -3.131   H1   197      4EA   0.000000
  4201  H61   -1.503   -0.376   -2.421   H1   197      4EA   0.000000
  4202   O6   -1.210    1.642   -2.786   Oh   197      4EA  -0.663000
  4203  H6O   -0.498    2.285   -2.786   Ho   197      4EA   0.406000
  4204   O5   -1.178    0.786   -0.053   Os   197      4EA  -0.587000
  4205   O4    1.709   -1.151   -1.371   Os   197      4EA  -0.500000
  4206   C1   -1.449   -0.721    1.011   Cg   198      4EB   0.488000
  4207   H1   -1.073   -0.618    2.029   H2   198      4EB   0.000000
  4208   O5   -1.314    0.567    0.318   Os   198      4EB  -0.532000
  4209   C5    0.099    1.024    0.104   Cg   198      4EB   0.257000
  4210   H5    0.557    1.193    1.081   H1   198      4EB   0.000000
  4211   C6    0.087    2.357   -0.668   Cg   198      4EB   0.278000
  4212  H62   -0.364    2.218   -1.652   H1   198      4EB   0.000000
  4213  H61    1.102    2.730   -0.806   H1   198      4EB   0.000000
  4214   O6   -0.674    3.339    0.058   Oh   198      4EB  -0.677000
  4215  H6O   -1.525    2.950    0.282   Ho   198      4EB   0.408000
  4216   C4    0.896   -0.074   -0.645   Cg   198      4EB   0.320000
  4217   H4    0.488   -0.173   -1.652   H1   198      4EB   0.000000
  4218   C3    0.780   -1.444    0.078   Cg   198      4EB   0.315000
  4219   H3    1.302   -2.203   -0.507   H1   198      4EB   0.000000
  4220   O3    1.398   -1.384    1.392   Oh   198      4EB  -0.681000
  4221  H3O    2.281   -1.007    1.296   Ho   198      4EB   0.403000
  4222   C2   -0.693   -1.858    0.257   Cg   198      4EB   0.184000
  4223   H2   -0.751   -2.780    0.838   H1   198      4EB   0.000000
  4224   O2   -1.250   -2.119   -1.070   Oh   198      4EB  -0.697000
  4225  H2O   -2.193   -2.306   -0.972   Ho   198      4EB   0.432000
  4226   O4    2.296    0.308   -0.773   Os   198      4EB  -0.498000
  4227   C1   -0.736    1.489   -0.937   Cg   199      4FA   0.399000
  4228   H1   -0.509    2.347   -1.570   H2   199      4FA   0.000000
  4229   C2   -0.225    0.186   -1.640   Cg   199      4FA   0.456000
  4230   H2    0.841    0.311   -1.834   H1   199      4FA   0.000000
  4231   O2   -0.870   -0.033   -2.935   Oh   199      4FA  -0.804000
  4232  H2O   -0.291   -0.576   -3.477   Ho   199      4FA   0.453000
  4233   C3   -0.427   -1.031   -0.701   Cg   199      4FA   0.228000
  4234   H3   -1.490   -1.142   -0.480   H1   199      4FA   0.000000
  4235   O3    0.029   -2.282   -1.308   Oh   199      4FA  -0.693000
  4236  H3O   -0.644   -2.591   -1.926   Ho   199      4FA   0.426000
  4237   C4    0.331   -0.803    0.631   Cg   199      4FA   0.263000
  4238   H4    0.117   -1.632    1.307   H1   199      4FA   0.000000
  4239   C5   -0.105    0.524    1.313   Cg   199      4FA   0.187000
  4240   H5   -1.141    0.396    1.631   H1   199      4FA   0.000000
  4241   C6    0.701    0.912    2.554   Cg   199      4FA   0.065000
  4242  H63    0.689    0.116    3.299   Hc   199      4FA   0.000000
  4243  H62    0.289    1.804    3.028   Hc   199      4FA   0.000000
  4244  H61    1.744    1.124    2.315   Hc   199      4FA   0.000000
  4245   O5   -0.063    1.674    0.359   Os   199      4FA  -0.494000
  4246   O4    1.759   -0.791    0.371   Os   199      4FA  -0.486000
  4247   C1   -1.516    0.527    0.931   Cg   200      4FB   0.418000
  4248   H1   -1.215    1.493    1.338   H2   200      4FB   0.000000
  4249   O5   -1.420    0.589   -0.544   Os   200      4FB  -0.442000
  4250   C5   -0.060    0.753   -1.107   Cg   200      4FB   0.106000
  4251   H5    0.373    1.668   -0.697   H1   200      4FB   0.000000
  4252   C6   -0.190    0.947   -2.620   Cg   200      4FB   0.092000
  4253  H63    0.788    1.075   -3.087   Hc   200      4FB   0.000000
  4254  H62   -0.677    0.098   -3.102   Hc   200      4FB   0.000000
  4255  H61   -0.778    1.836   -2.854   Hc   200      4FB   0.000000
  4256   C4    0.812   -0.438   -0.659   Cg   200      4FB   0.229000
  4257   H4    1.831   -0.310   -1.026   H1   200      4FB   0.000000
  4258   C3    0.815   -0.527    0.881   Cg   200      4FB   0.255000
  4259   H3    1.322    0.360    1.266   H1   200      4FB   0.000000
  4260   O3    1.571   -1.682    1.289   Oh   200      4FB  -0.676000
  4261  H3O    1.594   -1.727    2.248   Ho   200      4FB   0.427000
  4262   C2   -0.605   -0.594    1.480   Cg   200      4FB   0.346000
  4263   H2   -1.049   -1.570    1.279   H1   200      4FB   0.000000
  4264   O2   -0.492   -0.404    2.902   Oh   200      4FB  -0.765000
  4265  H2O   -1.365   -0.443    3.300   Ho   200      4FB   0.440000
  4266   O4    0.261   -1.651   -1.217   Os   200      4FB  -0.430000
  4267   C1   -0.912   -0.470    1.614   Cg   201      4GA   0.509000
  4268   H1   -1.821   -0.831    2.095   H2   201      4GA   0.000000
  4269   C2   -0.196   -1.648    0.892   Cg   201      4GA   0.246000
  4270   H2   -0.933   -2.144    0.259   H1   201      4GA   0.000000
  4271   O2    0.308   -2.638    1.848   Oh   201      4GA  -0.713000
  4272  H2O    0.680   -2.179    2.614   Ho   201      4GA   0.437000
  4273   C3    0.954   -1.145   -0.004   Cg   201      4GA   0.286000
  4274   H3    1.763   -0.769    0.625   H1   201      4GA   0.000000
  4275   O3    1.454   -2.262   -0.785   Oh   201      4GA  -0.699000
  4276  H3O    1.515   -3.024   -0.193   Ho   201      4GA   0.427000
  4277   C4    0.492   -0.032   -0.975   Cg   201      4GA   0.254000
  4278   H4   -0.215   -0.449   -1.695   H1   201      4GA   0.000000
  4279   C5   -0.180    1.130   -0.214   Cg   201      4GA   0.283000
  4280   H5    0.573    1.607    0.417   H1   201      4GA   0.000000
  4281   C6   -0.768    2.199   -1.164   Cg   201      4GA   0.276000
  4282  H62   -0.055    2.451   -1.949   H1   201      4GA   0.000000
  4283  H61   -1.673    1.817   -1.640   H1   201      4GA   0.000000
  4284   O6   -1.085    3.409   -0.442   Oh   201      4GA  -0.682000
  4285  H6O   -0.283    3.911   -0.284   Ho   201      4GA   0.418000
  4286   O5   -1.264    0.591    0.672   Os   201      4GA  -0.574000
  4287   O4    1.645    0.477   -1.692   Os   201      4GA  -0.468000
  4288   C1   -1.372   -0.637    1.018   Cg   202      4GB   0.384000
  4289   H1   -0.978   -0.524    2.029   H2   202      4GB   0.000000
  4290   O5   -1.312    0.657    0.330   Os   202      4GB  -0.471000
  4291   C5    0.064    1.194    0.099   Cg   202      4GB   0.225000
  4292   H5    0.548    1.326    1.069   H1   202      4GB   0.000000
  4293   C6   -0.034    2.567   -0.593   Cg   202      4GB   0.282000
  4294  H62   -0.503    2.462   -1.573   H1   202      4GB   0.000000
  4295  H61    0.957    2.999   -0.731   H1   202      4GB   0.000000
  4296   O6   -0.825    3.463    0.210   Oh   202      4GB  -0.688000
  4297  H6O   -1.665    3.035    0.402   Ho   202      4GB   0.424000
  4298   C4    0.868    0.170   -0.730   Cg   202      4GB   0.276000
  4299   H4    0.439    0.100   -1.732   H1   202      4GB   0.000000
  4300   C3    0.852   -1.228   -0.066   Cg   202      4GB   0.284000
  4301   H3    1.411   -1.185    0.871   H1   202      4GB   0.000000
  4302   O3    1.509   -2.176   -0.952   Oh   202      4GB  -0.709000
  4303  H3O    1.417   -3.053   -0.556   Ho   202      4GB   0.432000
  4304   C2   -0.584   -1.717    0.227   Cg   202      4GB   0.310000
  4305   H2   -1.097   -1.920   -0.715   H1   202      4GB   0.000000
  4306   O2   -0.516   -2.952    0.999   Oh   202      4GB  -0.718000
  4307  H2O   -1.417   -3.208    1.234   Ho   202      4GB   0.437000
  4308   O4    2.237    0.627   -0.840   Os   202      4GB  -0.468000
  4309   C1   -0.707    1.595   -1.057   Cg   203      4HA   0.394000
  4310   H1   -0.366    2.440   -1.655   H2   203      4HA   0.000000
  4311   C2   -0.347    0.271   -1.788   Cg   203      4HA   0.248000
  4312   H2   -0.973    0.162   -2.674   H1   203      4HA   0.000000
  4313   O2    1.042    0.317   -2.222   Oh   203      4HA  -0.670000
  4314  H2O    1.264   -0.567   -2.539   Ho   203      4HA   0.421000
  4315   C3   -0.563   -0.942   -0.855   Cg   203      4HA   0.236000
  4316   H3   -1.632   -1.037   -0.656   H1   203      4HA   0.000000
  4317   O3   -0.128   -2.156   -1.522   Oh   203      4HA  -0.649000
  4318  H3O   -0.227   -2.874   -0.886   Ho   203      4HA   0.425000
  4319   C4    0.184   -0.790    0.489   Cg   203      4HA   0.187000
  4320   H4    1.260   -0.787    0.313   H1   203      4HA   0.000000
  4321   C5   -0.237    0.524    1.193   Cg   203      4HA   0.279000
  4322   H5   -1.289    0.452    1.477   H1   203      4HA   0.000000
  4323   C6    0.580    0.844    2.446   Cg   203      4HA   0.023000
  4324  H63    0.473    0.067    3.202   Hc   203      4HA   0.000000
  4325  H62    0.257    1.781    2.902   Hc   203      4HA   0.000000
  4326  H61    1.643    0.939    2.220   Hc   203      4HA   0.000000
  4327   O5   -0.085    1.683    0.275   Os   203      4HA  -0.461000
  4328   O4   -0.149   -1.924    1.339   Os   203      4HA  -0.433000
  4329   C1   -1.896   -0.579   -0.501   Cg   204      4HB   0.381000
  4330   H1   -1.684   -1.326   -1.267   H2   204      4HB   0.000000
  4331   O5   -1.195   -0.967    0.742   Os   204      4HB  -0.427000
  4332   C5    0.279   -1.099    0.636   Cg   204      4HB   0.172000
  4333   H5    0.494   -1.908   -0.065   H1   204      4HB   0.000000
  4334  C6M    0.793   -1.504    2.019   Cg   204      4HB   0.039000
  4335  H1M    0.327   -2.429    2.360   Hc   204      4HB   0.000000
  4336  H2M    0.587   -0.737    2.767   Hc   204      4HB   0.000000
  4337  H3M    1.871   -1.672    2.010   Hc   204      4HB   0.000000
  4338   C4    0.883    0.219    0.095   Cg   204      4HB   0.388000
  4339   H4    0.856    0.984    0.874   H1   204      4HB   0.000000
  4340   C3    0.146    0.723   -1.163   Cg   204      4HB   0.182000
  4341   H3    0.346    0.040   -1.991   H1   204      4HB   0.000000
  4342   O3    0.641    2.024   -1.531   Oh   204      4HB  -0.665000
  4343  H3O    1.588    1.974   -1.681   Ho   204      4HB   0.418000
  4344   C2   -1.382    0.798   -0.967   Cg   204      4HB   0.243000
  4345   H2   -1.867    1.087   -1.901   H1   204      4HB   0.000000
  4346   O2   -1.686    1.780    0.050   Oh   204      4HB  -0.673000
  4347  H2O   -1.352    2.637   -0.223   Ho   204      4HB   0.432000
  4348   O4    2.250   -0.044   -0.264   Os   204      4HB  -0.490000
  4349   C2   -0.731    0.258    1.136   Cg   205      4JA   0.114000
  4350   C1   -2.175   -0.071    1.633   Cg   205      4JA   0.410000
  4351  H12   -2.142   -0.906    2.335   H1   205      4JA   0.000000
  4352  H11   -2.605    0.787    2.151   H1   205      4JA   0.000000
  4353   O1   -3.035   -0.424    0.538   Oh   205      4JA  -0.656000
  4354  H1O   -2.461   -0.857   -0.113   Ho   205      4JA   0.405000
  4355   C3    0.007   -0.968    0.513   Cg   205      4JA   0.271000
  4356   H3    0.166   -1.726    1.281   H1   205      4JA   0.000000
  4357   O3   -0.804   -1.562   -0.543   Oh   205      4JA  -0.654000
  4358  H3O   -0.236   -2.159   -1.048   Ho   205      4JA   0.425000
  4359   C4    1.377   -0.551   -0.079   Cg   205      4JA   0.281000
  4360   H4    2.023   -0.209    0.732   H1   205      4JA   0.000000
  4361   C5    1.223    0.591   -1.111   Cg   205      4JA   0.273000
  4362   H5    0.646    0.242   -1.968   H1   205      4JA   0.000000
  4363   C6    0.513    1.802   -0.475   Cg   205      4JA   0.368000
  4364  H6E    0.291    2.547   -1.238   H1   205      4JA   0.000000
  4365  H6A    1.163    2.267    0.268   H1   205      4JA   0.000000
  4366   O6   -0.757    1.399    0.190   Os   205      4JA  -0.504000
  4367   O5    2.535    1.012   -1.574   Oh   205      4JA  -0.699000
  4368  H5O    2.987    0.240   -1.935   Ho   205      4JA   0.419000
  4369   O4    2.016   -1.711   -0.693   Os   205      4JA  -0.453000
  4370   C2   -1.339   -0.037    0.583   Cg   206      4JB   0.413000
  4371   C1   -0.752    0.060    2.030   Cg   206      4JB   0.280000
  4372  H12   -1.126   -0.766    2.637   H1   206      4JB   0.000000
  4373  H11    0.334   -0.021    2.006   H1   206      4JB   0.000000
  4374   O1   -1.081    1.304    2.686   Oh   206      4JB  -0.722000
  4375  H1O   -2.003    1.505    2.486   Ho   206      4JB   0.432000
  4376   O6   -1.135    1.209   -0.197   Os   206      4JB  -0.551000
  4377   C6    0.256    1.536   -0.596   Cg   206      4JB   0.292000
  4378  H6E    0.246    2.422   -1.231   H1   206      4JB   0.000000
  4379  H6A    0.832    1.773    0.300   H1   206      4JB   0.000000
  4380   C5    0.911    0.353   -1.350   Cg   206      4JB   0.374000
  4381   H5    0.459    0.270   -2.339   H1   206      4JB   0.000000
  4382   O5    2.334    0.612   -1.506   Oh   206      4JB  -0.729000
  4383  H5O    2.742    0.824   -0.661   Ho   206      4JB   0.426000
  4384   C4    0.738   -0.985   -0.587   Cg   206      4JB   0.155000
  4385   H4    1.322   -0.935    0.332   H1   206      4JB   0.000000
  4386   C3   -0.743   -1.251   -0.211   Cg   206      4JB   0.363000
  4387   H3   -0.809   -2.156    0.395   H1   206      4JB   0.000000
  4388   O3   -1.474   -1.477   -1.456   Oh   206      4JB  -0.725000
  4389  H3O   -0.974   -2.139   -1.953   Ho   206      4JB   0.432000
  4390   O4    1.263   -2.101   -1.366   Os   206      4JB  -0.440000
  4391   C1   -1.062    0.795    1.311   Cg   207      4KA   0.473000
  4392   H1   -1.995    0.820    1.873   H2   207      4KA   0.000000
  4393   C2   -0.202   -0.383    1.819   Cg   207      4KA   0.281000
  4394   H2   -0.851   -1.260    1.819   H1   207      4KA   0.000000
  4395   O2    0.198   -0.173    3.185   Oh   207      4KA  -0.716000
  4396  H2O    0.758    0.605    3.238   Ho   207      4KA   0.427000
  4397   C3    1.017   -0.735    0.938   Cg   207      4KA   0.354000
  4398   H3    1.468   -1.666    1.285   H1   207      4KA   0.000000
  4399   O3    2.011    0.304    1.026   Oh   207      4KA  -0.744000
  4400  H3O    2.294    0.399    1.938   Ho   207      4KA   0.436000
  4401   C4    0.616   -0.859   -0.544   Cg   207      4KA   0.196000
  4402   H4    1.511   -0.946   -1.162   H1   207      4KA   0.000000
  4403   C5   -0.238    0.333   -1.044   Cg   207      4KA   0.301000
  4404   H5    0.398    1.220   -1.023   H1   207      4KA   0.000000
  4405   C6   -0.782    0.184   -2.471   Cg   207      4KA   0.287000
  4406  H62    0.028   -0.049   -3.162   H1   207      4KA   0.000000
  4407  H61   -1.523   -0.616   -2.524   H1   207      4KA   0.000000
  4408   O6   -1.391    1.420   -2.868   Oh   207      4KA  -0.691000
  4409  H6O   -0.738    2.123   -2.835   Ho   207      4KA   0.422000
  4410   O5   -1.380    0.561   -0.116   Os   207      4KA  -0.540000
  4411   O4   -0.138   -2.078   -0.684   Os   207      4KA  -0.486000
  4412   C1   -1.385   -0.585    0.959   Cg   208      4KB   0.449000
  4413   H1   -0.991   -0.435    1.965   H2   208      4KB   0.000000
  4414   O5   -1.294    0.667    0.204   Os   208      4KB  -0.514000
  4415   C5    0.102    1.125   -0.098   Cg   208      4KB   0.303000
  4416   H5    0.603    1.321    0.852   H1   208      4KB   0.000000
  4417   C6    0.048    2.453   -0.879   Cg   208      4KB   0.259000
  4418  H62   -0.519    2.331   -1.802   H1   208      4KB   0.000000
  4419  H61    1.056    2.777   -1.137   H1   208      4KB   0.000000
  4420   O6   -0.577    3.476   -0.079   Oh   208      4KB  -0.670000
  4421  H6O   -1.457    3.173    0.165   Ho   208      4KB   0.416000
  4422   C4    0.900    0.017   -0.837   Cg   208      4KB   0.217000
  4423   H4    1.943    0.329   -0.918   H1   208      4KB   0.000000
  4424   C3    0.824   -1.326   -0.077   Cg   208      4KB   0.253000
  4425   H3    1.300   -2.106   -0.672   H1   208      4KB   0.000000
  4426   O3    1.573   -1.185    1.159   Oh   208      4KB  -0.710000
  4427  H3O    1.457   -2.005    1.660   Ho   208      4KB   0.442000
  4428   C2   -0.637   -1.737    0.226   Cg   208      4KB   0.308000
  4429   H2   -1.142   -1.941   -0.720   H1   208      4KB   0.000000
  4430   O2   -0.639   -2.971    1.010   Oh   208      4KB  -0.710000
  4431  H2O   -1.556   -3.200    1.205   Ho   208      4KB   0.426000
  4432   O4    0.392   -0.178   -2.186   Os   208      4KB  -0.469000
  4433   C1   -1.102    0.859    1.266   Cg   209      4LA   0.465000
  4434   H1   -2.053    0.872    1.798   H2   209      4LA   0.000000
  4435   C2   -0.238   -0.306    1.803   Cg   209      4LA   0.339000
  4436   H2   -0.856   -1.205    1.816   H1   209      4LA   0.000000
  4437   O2    0.157   -0.023    3.158   Oh   209      4LA  -0.724000
  4438  H2O    0.685    0.778    3.176   Ho   209      4LA   0.431000
  4439   C3    1.006   -0.565    0.932   Cg   209      4LA   0.253000
  4440   H3    1.684    0.286    1.013   H1   209      4LA   0.000000
  4441   O3    1.701   -1.736    1.401   Oh   209      4LA  -0.701000
  4442  H3O    1.943   -1.616    2.322   Ho   209      4LA   0.433000
  4443   C4    0.634   -0.758   -0.554   Cg   209      4LA   0.204000
  4444   H4    1.542   -0.859   -1.151   H1   209      4LA   0.000000
  4445   C5   -0.192    0.443   -1.063   Cg   209      4LA   0.216000
  4446   H5    0.441    1.330   -0.994   H1   209      4LA   0.000000
  4447   C6   -0.676    0.327   -2.514   Cg   209      4LA   0.308000
  4448  H62    0.163    0.113   -3.176   H1   209      4LA   0.000000
  4449  H61   -1.411   -0.473   -2.617   H1   209      4LA   0.000000
  4450   O6   -1.272    1.571   -2.905   Oh   209      4LA  -0.684000
  4451  H6O   -0.624    2.275   -2.828   Ho   209      4LA   0.418000
  4452   O5   -1.372    0.640   -0.175   Os   209      4LA  -0.527000
  4453   O4   -0.160   -1.955   -0.708   Os   209      4LA  -0.431000
  4454   C1   -1.378   -0.619    1.028   Cg   210      4LB   0.374000
  4455   H1   -0.984   -0.510    2.040   H2   210      4LB   0.000000
  4456   O5   -1.301    0.682    0.350   Os   210      4LB  -0.402000
  4457   C5    0.075    1.191    0.063   Cg   210      4LB   0.140000
  4458   H5    0.591    1.327    1.015   H1   210      4LB   0.000000
  4459   C6   -0.011    2.563   -0.630   Cg   210      4LB   0.319000
  4460  H62   -0.603    2.499   -1.544   H1   210      4LB   0.000000
  4461  H61    0.986    2.921   -0.887   H1   210      4LB   0.000000
  4462   O6   -0.627    3.502    0.266   Oh   210      4LB  -0.693000
  4463  H6O   -1.496    3.162    0.497   Ho   210      4LB   0.419000
  4464   C4    0.868    0.147   -0.755   Cg   210      4LB   0.203000
  4465   H4    1.900    0.482   -0.865   H1   210      4LB   0.000000
  4466   C3    0.850   -1.225   -0.042   Cg   210      4LB   0.259000
  4467   H3    1.386   -1.123    0.904   H1   210      4LB   0.000000
  4468   O3    1.569   -2.194   -0.856   Oh   210      4LB  -0.694000
  4469  H3O    1.502   -3.051   -0.414   Ho   210      4LB   0.433000
  4470   C2   -0.587   -1.714    0.252   Cg   210      4LB   0.357000
  4471   H2   -1.099   -1.940   -0.685   H1   210      4LB   0.000000
  4472   O2   -0.513   -2.932    1.052   Oh   210      4LB  -0.726000
  4473  H2O   -1.414   -3.186    1.286   Ho   210      4LB   0.432000
  4474   O4    0.285    0.018   -2.075   Os   210      4LB  -0.421000
  4475   C1   -1.005   -0.417    1.708   Cg   211      4MA   0.433000
  4476   H1   -1.970   -0.733    2.103   H2   211      4MA   0.000000
  4477   C2   -0.300   -1.623    1.026   Cg   211      4MA   0.245000
  4478   H2    0.005   -2.342    1.788   H1   211      4MA   0.000000
  4479   O2   -1.225   -2.295    0.119   Oh   211      4MA  -0.717000
  4480  H2O   -0.723   -2.904   -0.437   Ho   211      4MA   0.446000
  4481   C3    0.947   -1.152    0.244   Cg   211      4MA   0.252000
  4482   H3    1.674   -0.757    0.957   H1   211      4MA   0.000000
  4483   O3    1.564   -2.293   -0.427   Oh   211      4MA  -0.696000
  4484  H3O    2.031   -2.836    0.218   Ho   211      4MA   0.431000
  4485   C4    0.595   -0.039   -0.774   Cg   211      4MA   0.326000
  4486   H4   -0.076   -0.434   -1.537   H1   211      4MA   0.000000
  4487   C5   -0.067    1.162   -0.059   Cg   211      4MA   0.276000
  4488   H5    0.673    1.614    0.605   H1   211      4MA   0.000000
  4489   C6   -0.554    2.236   -1.056   Cg   211      4MA   0.266000
  4490  H62    0.220    2.454   -1.793   H1   211      4MA   0.000000
  4491  H61   -1.435    1.878   -1.591   H1   211      4MA   0.000000
  4492   O6   -0.879    3.465   -0.373   Oh   211      4MA  -0.688000
  4493  H6O   -0.074    3.904   -0.087   Ho   211      4MA   0.422000
  4494   O5   -1.220    0.701    0.777   Os   211      4MA  -0.507000
  4495   O4    1.819    0.412   -1.412   Os   211      4MA  -0.489000
  4496   C1   -1.380   -0.696    1.185   Cg   212      4MB   0.314000
  4497   H1   -0.899   -0.653    2.163   H2   212      4MB   0.000000
  4498   O5   -1.272    0.624    0.548   Os   212      4MB  -0.393000
  4499   C5    0.117    1.083    0.225   Cg   212      4MB   0.206000
  4500   H5    0.641    1.250    1.169   H1   212      4MB   0.000000
  4501   C6    0.038    2.419   -0.535   Cg   212      4MB   0.273000
  4502  H62   -0.485    2.283   -1.484   H1   212      4MB   0.000000
  4503  H61    1.037    2.799   -0.746   H1   212      4MB   0.000000
  4504   O6   -0.671    3.390    0.255   Oh   212      4MB  -0.680000
  4505  H6O   -1.535    3.029    0.477   Ho   212      4MB   0.419000
  4506   C4    0.881    0.003   -0.583   Cg   212      4MB   0.349000
  4507   H4    0.472   -0.062   -1.592   H1   212      4MB   0.000000
  4508   C3    0.775   -1.377    0.123   Cg   212      4MB   0.263000
  4509   H3    1.225   -1.296    1.114   H1   212      4MB   0.000000
  4510   O3    1.512   -2.412   -0.591   Oh   212      4MB  -0.692000
  4511  H3O    2.444   -2.363   -0.359   Ho   212      4MB   0.430000
  4512   C2   -0.706   -1.784    0.304   Cg   212      4MB   0.241000
  4513   H2   -0.770   -2.754    0.800   H1   212      4MB   0.000000
  4514   O2   -1.382   -1.863   -0.987   Oh   212      4MB  -0.664000
  4515  H2O   -2.318   -2.022   -0.815   Ho   212      4MB   0.431000
  4516   O4    2.275    0.400   -0.672   Os   212      4MB  -0.497000
  4517   C1   -1.033    0.909    1.369   Cg   213      4NA   0.478000
  4518   H1   -1.979    1.002    1.902   H2   213      4NA   0.000000
  4519   C2   -0.296   -0.352    1.874   Cg   213      4NA   0.228000
  4520   H2   -1.013   -1.173    1.823   H1   213      4NA   0.000000
  4521   O2    0.065   -0.209    3.260   Oh   213      4NA  -0.668000
  4522  H2O    0.700    0.505    3.352   Ho   213      4NA   0.415000
  4523   C3    0.926   -0.772    1.034   Cg   213      4NA   0.330000
  4524   H3    1.308   -1.731    1.387   H1   213      4NA   0.000000
  4525   O3    1.967    0.221    1.161   Oh   213      4NA  -0.714000
  4526  H3O    2.746   -0.069    0.681   Ho   213      4NA   0.441000
  4527   C4    0.491   -0.888   -0.442   Cg   213      4NA   0.167000
  4528   H4   -0.205   -1.724   -0.524   H1   213      4NA   0.000000
  4529   C5   -0.202    0.381   -0.986   Cg   213      4NA   0.404000
  4530   H5    0.516    1.203   -0.995   H1   213      4NA   0.000000
  4531   C6   -0.786    0.210   -2.395   Cg   213      4NA   0.280000
  4532  H62   -0.012   -0.108   -3.094   H1   213      4NA   0.000000
  4533  H61   -1.580   -0.538   -2.395   H1   213      4NA   0.000000
  4534   O6   -1.316    1.467   -2.836   Oh   213      4NA  -0.663000
  4535  H6O   -0.615    2.123   -2.852   Ho   213      4NA   0.396000
  4536   O5   -1.322    0.738   -0.072   Os   213      4NA  -0.611000
  4537   O4    1.641   -1.196   -1.251   Os   213      4NA  -0.483000
  4538   C1   -1.379   -0.612    0.963   Cg   214      4NB   0.422000
  4539   H1   -0.977   -0.491    1.971   H2   214      4NB   0.000000
  4540   O5   -1.285    0.666    0.244   Os   214      4NB  -0.507000
  4541   C5    0.103    1.134   -0.081   Cg   214      4NB   0.198000
  4542   H5    0.641    1.296    0.854   H1   214      4NB   0.000000
  4543   C6    0.031    2.476   -0.835   Cg   214      4NB   0.313000
  4544  H62   -0.499    2.352   -1.780   H1   214      4NB   0.000000
  4545  H61    1.032    2.853   -1.046   H1   214      4NB   0.000000
  4546   O6   -0.669    3.436   -0.025   Oh   214      4NB  -0.689000
  4547  H6O   -1.471    3.015    0.299   Ho   214      4NB   0.418000
  4548   C4    0.816    0.028   -0.895   Cg   214      4NB   0.286000
  4549   H4    0.287   -0.106   -1.840   H1   214      4NB   0.000000
  4550   C3    0.819   -1.317   -0.133   Cg   214      4NB   0.234000
  4551   H3    1.293   -2.086   -0.746   H1   214      4NB   0.000000
  4552   O3    1.576   -1.179    1.105   Oh   214      4NB  -0.615000
  4553  H3O    1.414   -1.972    1.635   Ho   214      4NB   0.389000
  4554   C2   -0.630   -1.741    0.191   Cg   214      4NB   0.301000
  4555   H2   -1.150   -1.930   -0.751   H1   214      4NB   0.000000
  4556   O2   -0.607   -2.987    0.947   Oh   214      4NB  -0.703000
  4557  H2O   -1.519   -3.253    1.125   Ho   214      4NB   0.424000
  4558   O4    2.176    0.416   -1.201   Os   214      4NB  -0.471000
  4559   C1   -0.930   -0.114    1.608   Cg   215      4OA   0.305000
  4560   H1   -1.851   -0.454    2.081   H2   215      4OA   0.000000
  4561   C2   -0.278   -1.307    0.837   Cg   215      4OA   0.413000
  4562   H2   -1.042   -1.800    0.233   H1   215      4OA   0.000000
  4563   O2    0.236   -2.281    1.801   Oh   215      4OA  -0.771000
  4564  H2O    0.553   -1.762    2.551   Ho   215      4OA   0.431000
  4565   C3    0.863   -0.812   -0.084   Cg   215      4OA   0.251000
  4566   H3    1.636   -0.361    0.542   H1   215      4OA   0.000000
  4567   O3    1.496   -1.916   -0.800   Oh   215      4OA  -0.725000
  4568  H3O    1.471   -2.685   -0.219   Ho   215      4OA   0.416000
  4569   C4    0.337    0.278   -1.055   Cg   215      4OA   0.267000
  4570   H4    1.145    0.599   -1.713   H1   215      4OA   0.000000
  4571   C5   -0.183    1.483   -0.250   Cg   215      4OA   0.054000
  4572   H5    0.640    1.895    0.338   H1   215      4OA   0.000000
  4573   C6   -0.608    2.567   -1.297    C   215      4OA   0.896000
  4574  O6A    0.180    3.526   -1.462   O2   215      4OA  -0.822000
  4575  O6B   -1.652    2.349   -1.959   O2   215      4OA  -0.822000
  4576   O5   -1.251    1.011    0.715   Os   215      4OA  -0.424000
  4577   O4   -0.764   -0.216   -1.867   Os   215      4OA  -0.469000
  4578   C1   -1.538   -0.340    1.091   Cg   216      4OB   0.301000
  4579   H1   -1.128   -0.243    2.097   H2   216      4OB   0.000000
  4580   O5   -1.451    0.957    0.422   Os   216      4OB  -0.414000
  4581   C5   -0.068    1.439    0.074   Cg   216      4OB   0.049000
  4582   H5    0.484    1.503    1.014   H1   216      4OB   0.000000
  4583   C6    0.089    2.865   -0.574    C   216      4OB   0.838000
  4584  O6B    1.251    3.194   -0.919   O2   216      4OB  -0.794000
  4585  O6A   -0.910    3.622   -0.613   O2   216      4OB  -0.794000
  4586   C4    0.635    0.380   -0.793   Cg   216      4OB   0.260000
  4587   H4    1.667    0.681   -0.981   H1   216      4OB   0.000000
  4588   C3    0.647   -0.994   -0.081   Cg   216      4OB   0.259000
  4589   H3    1.232   -0.895    0.837   H1   216      4OB   0.000000
  4590   O3    1.336   -1.962   -0.940   Oh   216      4OB  -0.708000
  4591  H3O    2.285   -1.839   -0.853   Ho   216      4OB   0.404000
  4592   C2   -0.785   -1.456    0.303   Cg   216      4OB   0.383000
  4593   H2   -1.342   -1.705   -0.601   H1   216      4OB   0.000000
  4594   O2   -0.724   -2.636    1.161   Oh   216      4OB  -0.732000
  4595  H2O   -1.629   -2.830    1.422   Ho   216      4OB   0.401000
  4596   O4   -0.049    0.258   -2.065   Os   216      4OB  -0.453000
  4597   C2   -0.845    0.834    0.462   Cg   217      4PA   0.417000
  4598   C1   -2.298    0.823    0.976   Cg   217      4PA   0.327000
  4599  H12   -2.319    0.856    2.066   H1   217      4PA   0.000000
  4600  H11   -2.841    1.692    0.600   H1   217      4PA   0.000000
  4601   O1   -2.970   -0.366    0.534   Oh   217      4PA  -0.644000
  4602  H1O   -2.512   -1.137    0.875   Ho   217      4PA   0.393000
  4603   C3    0.034   -0.356    0.952   Cg   217      4PA   0.150000
  4604   H3   -0.511   -1.273    0.726   H1   217      4PA   0.000000
  4605   O3    0.204   -0.325    2.382   Oh   217      4PA  -0.665000
  4606  H3O    0.676    0.474    2.630   Ho   217      4PA   0.409000
  4607   C4    1.405   -0.491    0.257   Cg   217      4PA   0.394000
  4608   H4    1.891   -1.418    0.565   H1   217      4PA   0.000000
  4609   C5    1.182   -0.494   -1.268   Cg   217      4PA   0.153000
  4610   H5    0.627   -1.395   -1.534   H1   217      4PA   0.000000
  4611   C6    0.392    0.725   -1.766   Cg   217      4PA   0.393000
  4612  H6E    0.182    0.632   -2.832   H1   217      4PA   0.000000
  4613  H6A    0.958    1.644   -1.608   H1   217      4PA   0.000000
  4614   O6   -0.889    0.807   -1.026   Os   217      4PA  -0.598000
  4615   O5    2.446   -0.540   -1.951   Oh   217      4PA  -0.693000
  4616  H5O    2.937   -1.313   -1.664   Ho   217      4PA   0.428000
  4617   O4    2.249    0.622    0.624   Os   217      4PA  -0.464000
  4618   C2   -1.335   -0.080    0.334   Cg   218      4PB   0.407000
  4619   C1   -0.938    0.098    1.845   Cg   218      4PB   0.379000
  4620  H12   -1.166   -0.812    2.401   H1   218      4PB   0.000000
  4621  H11    0.130    0.281    1.937   H1   218      4PB   0.000000
  4622   O1   -1.628    1.208    2.478   Oh   218      4PB  -0.720000
  4623  H1O   -1.339    1.284    3.392   Ho   218      4PB   0.410000
  4624   O6   -1.166    1.173   -0.432   Os   218      4PB  -0.540000
  4625   C6    0.220    1.590   -0.754   Cg   218      4PB   0.364000
  4626  H6E    0.188    2.514   -1.330   H1   218      4PB   0.000000
  4627  H6A    0.768    1.784    0.169   H1   218      4PB   0.000000
  4628   C5    0.900    0.478   -1.575   Cg   218      4PB   0.188000
  4629   H5    0.363    0.378   -2.519   H1   218      4PB   0.000000
  4630   O5    2.275    0.836   -1.883   Oh   218      4PB  -0.705000
  4631  H5O    2.834    0.569   -1.140   Ho   218      4PB   0.433000
  4632   C4    0.845   -0.877   -0.832   Cg   218      4PB   0.328000
  4633   H4    1.232   -1.659   -1.486   H1   218      4PB   0.000000
  4634   C3   -0.601   -1.239   -0.413   Cg   218      4PB   0.180000
  4635   H3   -1.144   -1.439   -1.339   H1   218      4PB   0.000000
  4636   O3   -0.605   -2.481    0.359   Oh   218      4PB  -0.681000
  4637  H3O   -1.519   -2.788    0.436   Ho   218      4PB   0.422000
  4638   O4    1.687   -0.818    0.351   Os   218      4PB  -0.465000
  4639   C1   -0.644    1.492   -1.048   Cg   219      4QA   0.465000
  4640   H1   -0.409    2.339   -1.694   H1   219      4QA   0.000000
  4641   C2   -0.258    0.165   -1.762   Cg   219      4QA   0.281000
  4642   H2    0.783    0.249   -2.078   H1   219      4QA   0.000000
  4643   O2   -1.074   -0.012   -2.965   Oh   219      4QA  -0.695000
  4644  H2O   -2.005   -0.018   -2.721   Ho   219      4QA   0.422000
  4645   C3   -0.378   -1.037   -0.790   Cg   219      4QA   0.312000
  4646   H3   -1.432   -1.217   -0.569   H1   219      4QA   0.000000
  4647   O3    0.179   -2.229   -1.401   Oh   219      4QA  -0.697000
  4648  H3O    0.104   -2.945   -0.761   Ho   219      4QA   0.424000
  4649   C4    0.394   -0.796    0.533   Cg   219      4QA   0.208000
  4650   H4    1.465   -0.783    0.324   H1   219      4QA   0.000000
  4651   C5   -0.009    0.539    1.199   Cg   219      4QA   0.234000
  4652   H5   -1.044    0.469    1.539   H1   219      4QA   0.000000
  4653   C6    0.864    0.928    2.396   Cg   219      4QA   0.060000
  4654  H63    1.914    1.022    2.116   Hc   219      4QA   0.000000
  4655  H62    0.802    0.187    3.194   Hc   219      4QA   0.000000
  4656  H61    0.550    1.883    2.821   Hc   219      4QA   0.000000
  4657   O5    0.084    1.650    0.215   Os   219      4QA  -0.559000
  4658   O4    0.112   -1.887    1.455   Os   219      4QA  -0.455000
  4659   C1   -1.377   -0.373    1.168   Cg   220      4QB   0.391000
  4660   H1   -0.909   -0.197    2.137   H1   220      4QB   0.000000
  4661   O5   -1.350    0.858    0.381   Os   220      4QB  -0.535000
  4662   C5    0.004    1.361    0.031   Cg   220      4QB   0.271000
  4663   H5    0.540    1.576    0.958   H1   220      4QB   0.000000
  4664   C6   -0.185    2.671   -0.736   Cg   220      4QB   0.048000
  4665  H63   -0.724    2.517   -1.672   Hc   220      4QB   0.000000
  4666  H62    0.773    3.134   -0.980   Hc   220      4QB   0.000000
  4667  H61   -0.750    3.396   -0.148   Hc   220      4QB   0.000000
  4668   C4    0.767    0.271   -0.759   Cg   220      4QB   0.250000
  4669   H4    0.302    0.145   -1.739   H1   220      4QB   0.000000
  4670   C3    0.756   -1.084   -0.009   Cg   220      4QB   0.300000
  4671   H3    1.371   -0.997    0.890   H1   220      4QB   0.000000
  4672   O3    1.340   -2.100   -0.869   Oh   220      4QB  -0.689000
  4673  H3O    1.255   -2.948   -0.414   Ho   220      4QB   0.420000
  4674   C2   -0.668   -1.524    0.401   Cg   220      4QB   0.323000
  4675   H2   -1.244   -1.770   -0.494   H1   220      4QB   0.000000
  4676   O2   -0.577   -2.714    1.243   Oh   220      4QB  -0.713000
  4677  H2O   -1.466   -2.924    1.558   Ho   220      4QB   0.420000
  4678   O4    2.140    0.701   -0.946   Os   220      4QB  -0.486000
  4679   C1   -1.467    0.888    0.520   Cg   221      4RA   0.488000
  4680   H1   -2.501    0.839    0.860   H2   221      4RA   0.000000
  4681   C2   -0.705   -0.350    1.050   Cg   221      4RA   0.253000
  4682   H2   -1.310   -1.220    0.791   H1   221      4RA   0.000000
  4683   O2   -0.627   -0.321    2.487   Oh   221      4RA  -0.711000
  4684  H2O   -0.098    0.431    2.762   Ho   221      4RA   0.419000
  4685   C3    0.690   -0.575    0.433   Cg   221      4RA   0.345000
  4686   H3    1.097   -1.531    0.768   H1   221      4RA   0.000000
  4687   O3    1.581    0.484    0.847   Oh   221      4RA  -0.737000
  4688  H3O    2.456    0.324    0.487   Ho   221      4RA   0.443000
  4689   C4    0.548   -0.568   -1.102   Cg   221      4RA   0.122000
  4690   H4   -0.039   -1.439   -1.398   H1   221      4RA   0.000000
  4691   C5   -0.151    0.690   -1.643   Cg   221      4RA   0.377000
  4692  H5E   -0.316    0.600   -2.716   H1   221      4RA   0.000000
  4693  H5A    0.459    1.576   -1.465   H1   221      4RA   0.000000
  4694   O5   -1.459    0.853   -0.963   Os   221      4RA  -0.561000
  4695   O4    1.841   -0.681   -1.718   Os   221      4RA  -0.438000
  4696   C1   -1.578   -0.038    0.727   Cg   222      4RB   0.481000
  4697   H1   -1.249    0.037    1.764   H2   222      4RB   0.000000
  4698   O5   -1.465    1.273    0.072   Os   222      4RB  -0.576000
  4699   C5   -0.076    1.762   -0.142   Cg   222      4RB   0.335000
  4700  H5E   -0.112    2.691   -0.710   H1   222      4RB   0.000000
  4701  H5A    0.381    1.977    0.825   H1   222      4RB   0.000000
  4702   C4    0.745    0.700   -0.914   Cg   222      4RB   0.236000
  4703   H4    0.309    0.581   -1.907   H1   222      4RB   0.000000
  4704   C3    0.707   -0.664   -0.183   Cg   222      4RB   0.203000
  4705   H3    1.273   -1.402   -0.754   H1   222      4RB   0.000000
  4706   O3    1.325   -0.508    1.130   Oh   222      4RB  -0.696000
  4707  H3O    2.220   -0.165    1.018   Ho   222      4RB   0.428000
  4708   C2   -0.769   -1.120   -0.059   Cg   222      4RB   0.385000
  4709   H2   -1.187   -1.191   -1.066   H1   222      4RB   0.000000
  4710   O2   -0.860   -2.450    0.533   Oh   222      4RB  -0.732000
  4711  H2O   -1.781   -2.627    0.752   Ho   222      4RB   0.414000
  4712   O4    2.118    1.143   -1.085   Os   222      4RB  -0.478000
  4713   C2   -2.641   -0.025   -1.287   Cy   223      4SA   0.237000
  4714   C1   -2.319    1.346   -2.123    C   223      4SA   0.789000
  4715  O1A   -2.048    2.368   -1.435   O2   223      4SA  -0.761000
  4716  O1B   -2.232    1.294   -3.374   O2   223      4SA  -0.761000
  4717   C3   -2.270   -1.319   -2.054   Cg   223      4SA   0.006000
  4718  H3E   -2.716   -1.320   -3.051   Hc   223      4SA   0.000000
  4719  H3A   -2.689   -2.193   -1.546   Hc   223      4SA   0.000000
  4720   C4   -0.743   -1.483   -2.150   Cg   223      4SA   0.332000
  4721   H4   -0.359   -0.730   -2.840   H1   223      4SA   0.000000
  4722   C5   -0.020   -1.317   -0.777   Cg   223      4SA   0.308000
  4723   H5   -0.302   -2.154   -0.135   H1   223      4SA   0.000000
  4724   C6   -0.510   -0.008   -0.121   Cg   223      4SA   0.220000
  4725   H6   -0.223    0.795   -0.800   H1   223      4SA   0.000000
  4726   C7    0.075    0.406    1.246   Cg   223      4SA   0.111000
  4727   H7    1.131    0.636    1.101   H1   223      4SA   0.000000
  4728   C8   -0.614    1.678    1.819   Cg   223      4SA   0.492000
  4729   H8   -1.672    1.481    1.998   H1   223      4SA   0.000000
  4730   C9    0.039    2.159    3.142   Cg   223      4SA   0.178000
  4731  H9S    0.028    1.356    3.880   H1   223      4SA   0.000000
  4732  H9R    1.079    2.435    2.965   H1   223      4SA   0.000000
  4733   O9   -0.658    3.300    3.701   Oh   223      4SA  -0.689000
  4734  H9O   -0.765    3.942    2.988   Ho   223      4SA   0.408000
  4735   O8   -0.493    2.764    0.850   Oh   223      4SA  -0.739000
  4736  H8O   -1.089    2.605    0.085   Ho   223      4SA   0.412000
  4737   O7    0.003   -0.710    2.184   Oh   223      4SA  -0.721000
  4738  H7O    0.614   -1.420    1.905   Ho   223      4SA   0.435000
  4739   O6   -1.947   -0.065   -0.033   Oy   223      4SA  -0.403000
  4740   N5    1.455   -1.305   -0.938   Ng   223      4SA  -0.629000
  4741  H5N    1.833   -0.795   -1.720    H   223      4SA   0.280000
  4742  C5N    2.301   -1.822   -0.042    C   223      4SA   0.632000
  4743  CME    3.801   -1.712   -0.375   Cg   223      4SA  -0.003000
  4744  H3M    3.962   -1.720   -1.455   Hc   223      4SA   0.000000
  4745  H2M    4.341   -2.553    0.063   Hc   223      4SA   0.000000
  4746  H1M    4.196   -0.783    0.038   Hc   223      4SA   0.000000
  4747  O5N    1.911   -2.342    1.000    O   223      4SA  -0.593000
  4748   O4   -0.461   -2.792   -2.709   Os   223      4SA  -0.541000
  4749   C2   -0.083   -1.013    2.696   Cy   224      4SB   0.090000
  4750   C1    0.618   -0.779    4.141    C   224      4SB   0.979000
  4751  O1B   -0.168   -0.805    5.125   O2   224      4SB  -0.839000
  4752  O1A    1.861   -0.626    4.207   O2   224      4SB  -0.839000
  4753   O6    0.202    0.047    1.756   Oy   224      4SB  -0.344000
  4754   C6   -0.226   -0.078    0.383   Cg   224      4SB  -0.008000
  4755   H6   -1.308   -0.222    0.392   H1   224      4SB   0.000000
  4756   C7    0.020    1.256   -0.361   Cg   224      4SB   0.278000
  4757   H7   -0.546    1.219   -1.293   H1   224      4SB   0.000000
  4758   O7    1.421    1.371   -0.711   Oh   224      4SB  -0.656000
  4759  H7O    1.641    0.719   -1.400   Ho   224      4SB   0.390000
  4760   C8   -0.433    2.522    0.422   Cg   224      4SB   0.367000
  4761   H8    0.209    2.662    1.293   H1   224      4SB   0.000000
  4762   O8   -1.803    2.330    0.888   Oh   224      4SB  -0.704000
  4763  H8O   -1.781    1.622    1.547   Ho   224      4SB   0.392000
  4764   C9   -0.392    3.800   -0.450   Cg   224      4SB   0.201000
  4765  H9S    0.618    3.969   -0.824   H1   224      4SB   0.000000
  4766  H9R   -1.056    3.689   -1.308   H1   224      4SB   0.000000
  4767   O9   -0.800    4.958    0.311   Oh   224      4SB  -0.672000
  4768  H9O   -1.579    4.701    0.818   Ho   224      4SB   0.393000
  4769   C5    0.395   -1.347   -0.232   Cg   224      4SB   0.523000
  4770   H5    1.477   -1.221   -0.300   H1   224      4SB   0.000000
  4771   N5   -0.165   -1.571   -1.579   Ng   224      4SB  -0.669000
  4772  H5N   -1.081   -1.980   -1.631    H   224      4SB   0.261000
  4773  C5N    0.450   -1.191   -2.698    C   224      4SB   0.678000
  4774  O5N    1.502   -0.562   -2.673    O   224      4SB  -0.634000
  4775  CME   -0.227   -1.584   -4.025   Cg   224      4SB  -0.005000
  4776  H3M   -1.296   -1.757   -3.885   Hc   224      4SB   0.000000
  4777  H2M    0.235   -2.494   -4.410   Hc   224      4SB   0.000000
  4778  H1M   -0.097   -0.784   -4.755   Hc   224      4SB   0.000000
  4779   C4    0.108   -2.580    0.671   Cg   224      4SB   0.203000
  4780   H4   -0.966   -2.781    0.665   H1   224      4SB   0.000000
  4781   C3    0.545   -2.307    2.120   Cg   224      4SB   0.133000
  4782  H3E    0.284   -3.161    2.751   Hc   224      4SB   0.000000
  4783  H3A    1.636   -2.243    2.153   Hc   224      4SB   0.000000
  4784   O4    0.787   -3.780    0.194   Os   224      4SB  -0.518000
  4785   C1   -0.974    0.955    1.316   Cg   225      4TA   0.456000
  4786   H1   -1.937    0.967    1.829   H2   225      4TA   0.000000
  4787   C2   -0.112   -0.193    1.878   Cg   225      4TA   0.245000
  4788   H2    0.241    0.058    2.880   H1   225      4TA   0.000000
  4789   O2   -0.978   -1.339    1.985   Oh   225      4TA  -0.655000
  4790  H2O   -1.721   -1.127    2.554   Ho   225      4TA   0.436000
  4791   C3    1.093   -0.513    0.966   Cg   225      4TA   0.124000
  4792   H3    1.777    0.333    1.042   H1   225      4TA   0.000000
  4793   O3    1.810   -1.662    1.452   Oh   225      4TA  -0.687000
  4794  H3O    2.059   -1.521    2.368   Ho   225      4TA   0.442000
  4795   C4    0.751   -0.675   -0.530   Cg   225      4TA   0.434000
  4796   H4    1.671   -0.769   -1.108   H1   225      4TA   0.000000
  4797   C5   -0.044    0.555   -1.019   Cg   225      4TA   0.157000
  4798   H5    0.611    1.424   -0.930   H1   225      4TA   0.000000
  4799   C6   -0.523    0.477   -2.475   Cg   225      4TA   0.304000
  4800  H62    0.314    0.251   -3.136   H1   225      4TA   0.000000
  4801  H61   -1.279   -0.300   -2.595   H1   225      4TA   0.000000
  4802   O6   -1.081    1.744   -2.848   Oh   225      4TA  -0.669000
  4803  H6O   -0.413    2.427   -2.756   Ho   225      4TA   0.401000
  4804   O5   -1.222    0.769   -0.137   Os   225      4TA  -0.480000
  4805   O4   -0.044   -1.862   -0.735   Os   225      4TA  -0.508000
  4806   C1   -1.494    0.264    1.141   Cg   226      4TB   0.306000
  4807   H1   -1.249    1.213    1.619   H2   226      4TB   0.000000
  4808   O5   -1.323    0.423   -0.321   Os   226      4TB  -0.354000
  4809   C5    0.037    0.846   -0.749   Cg   226      4TB   0.031000
  4810   H5    0.275    1.784   -0.243   H1   226      4TB   0.000000
  4811   C6    0.020    1.121   -2.259   Cg   226      4TB   0.349000
  4812  H62   -0.330    0.246   -2.809   H1   226      4TB   0.000000
  4813  H61    1.021    1.373   -2.608   H1   226      4TB   0.000000
  4814   O6   -0.857    2.226   -2.518   Oh   226      4TB  -0.666000
  4815  H6O   -1.740    2.012   -2.207   Ho   226      4TB   0.406000
  4816   C4    1.072   -0.206   -0.284   Cg   226      4TB   0.314000
  4817   H4    2.080    0.167   -0.474   H1   226      4TB   0.000000
  4818   C3    0.902   -0.493    1.227   Cg   226      4TB   0.174000
  4819   H3    1.187    0.419    1.754   H1   226      4TB   0.000000
  4820   O3    1.817   -1.517    1.656   Oh   226      4TB  -0.678000
  4821  H3O    1.602   -2.342    1.215   Ho   226      4TB   0.425000
  4822   C2   -0.540   -0.831    1.666   Cg   226      4TB   0.340000
  4823   H2   -0.595   -0.883    2.754   H1   226      4TB   0.000000
  4824   O2   -0.932   -2.107    1.115   Oh   226      4TB  -0.637000
  4825  H2O   -1.837   -2.299    1.369   Ho   226      4TB   0.397000
  4826   O4    0.883   -1.417   -1.045   Os   226      4TB  -0.407000
  4827   C1   -1.845    0.410    0.357   Cg   227      4UA   0.363000
  4828   H1   -1.820    1.300   -0.272   H2   227      4UA   0.000000
  4829   C2   -1.375   -0.844   -0.442   Cg   227      4UA   0.259000
  4830   H2   -1.652   -1.739    0.118   H1   227      4UA   0.000000
  4831   O2   -2.047   -0.882   -1.747   Oh   227      4UA  -0.685000
  4832  H2O   -1.735   -0.163   -2.302   Ho   227      4UA   0.385000
  4833   C3    0.168   -0.826   -0.627   Cg   227      4UA   0.417000
  4834   H3    0.426   -0.066   -1.367   H1   227      4UA   0.000000
  4835   O3    0.634   -2.114   -1.117   Oh   227      4UA  -0.771000
  4836  H3O    1.592   -2.101   -0.996   Ho   227      4UA   0.417000
  4837   C4    0.945   -0.525    0.681   Cg   227      4UA   0.223000
  4838   H4    0.756   -1.334    1.390   H1   227      4UA   0.000000
  4839   C5    0.450    0.794    1.306   Cg   227      4UA   0.232000
  4840   H5    0.920    0.889    2.286   H1   227      4UA   0.000000
  4841   C6    0.950    2.052    0.470    C   227      4UA   0.697000
  4842  O6A    0.094    2.859    0.043   O2   227      4UA  -0.757000
  4843  O6B    2.181    2.132    0.237   O2   227      4UA  -0.757000
  4844   O5   -1.024    0.633    1.549   Os   227      4UA  -0.515000
  4845   O4    2.384   -0.477    0.435   Os   227      4UA  -0.508000
  4846   C1    0.096    0.609    1.831   Cg   228      4UB   0.278000
  4847   H1    0.637    0.906    2.729   H2   228      4UB   0.000000
  4848   O5    0.133    1.727    0.865   Os   228      4UB  -0.430000
  4849   C5   -0.421    1.482   -0.520   Cg   228      4UB   0.194000
  4850   H5   -0.135    2.343   -1.126   H1   228      4UB   0.000000
  4851   C6   -1.993    1.387   -0.657    C   228      4UB   0.750000
  4852  O6B   -2.463    1.083   -1.781   O2   228      4UB  -0.783000
  4853  O6A   -2.677    1.588    0.372   O2   228      4UB  -0.783000
  4854   C4    0.280    0.243   -1.123   Cg   228      4UB   0.308000
  4855   H4    1.334    0.495   -1.258   H1   228      4UB   0.000000
  4856   C3    0.201   -0.986   -0.179   Cg   228      4UB   0.286000
  4857   H3   -0.837   -1.302   -0.066   H1   228      4UB   0.000000
  4858   O3    0.965   -2.084   -0.765   Oh   228      4UB  -0.755000
  4859  H3O    0.721   -2.097   -1.702   Ho   228      4UB   0.421000
  4860   C2    0.804   -0.625    1.197   Cg   228      4UB   0.289000
  4861   H2    1.848   -0.351    1.041   H1   228      4UB   0.000000
  4862   O2    0.802   -1.784    2.076   Oh   228      4UB  -0.680000
  4863  H2O    0.959   -2.542    1.503   Ho   228      4UB   0.422000
  4864   O4   -0.254   -0.093   -2.435   Os   228      4UB  -0.517000
  4865   C1   -0.470    1.383    0.048   Cg   229      4VA   0.389000
  4866   H1   -0.284    2.185   -0.667   H2   229      4VA   0.000000
  4867   C2   -0.089    0.020   -0.619   Cg   229      4VA   0.399000
  4868   H2    0.922    0.122   -1.019   H1   229      4VA   0.000000
  4869   N2   -0.994   -0.313   -1.746   Ng   229      4VA  -0.595000
  4870  H2N   -1.865   -0.764   -1.522    H   229      4VA   0.238000
  4871  C2N   -0.831    0.193   -2.972    C   229      4VA   0.625000
  4872  CME   -1.913   -0.167   -4.009   Cg   229      4VA   0.032000
  4873  H3M   -2.905    0.035   -3.601   Hc   229      4VA   0.000000
  4874  H2M   -1.780    0.427   -4.914   Hc   229      4VA   0.000000
  4875  H1M   -1.838   -1.225   -4.265   Hc   229      4VA   0.000000
  4876  O2N    0.129    0.901   -3.260    O   229      4VA  -0.605000
  4877   C3   -0.074   -1.123    0.429   Cg   229      4VA   0.176000
  4878   H3   -1.089   -1.262    0.803   H1   229      4VA   0.000000
  4879   O3    0.357   -2.396   -0.147   Oh   229      4VA  -0.678000
  4880  H3O   -0.214   -2.643   -0.883   Ho   229      4VA   0.425000
  4881   C4    0.836   -0.780    1.633   Cg   229      4VA   0.326000
  4882   H4    0.759   -1.575    2.377   H1   229      4VA   0.000000
  4883   C5    0.419    0.562    2.282   Cg   229      4VA   0.112000
  4884   H5   -0.584    0.419    2.686   H1   229      4VA   0.000000
  4885   C6    1.301    1.007    3.467   Cg   229      4VA   0.362000
  4886  H62    0.904    1.921    3.908   H1   229      4VA   0.000000
  4887  H61    1.301    0.233    4.234   H1   229      4VA   0.000000
  4888   O6    2.653    1.241    3.044   Oh   229      4VA  -0.711000
  4889  H6O    2.809    0.663    2.278   Ho   229      4VA   0.424000
  4890   O5    0.328    1.647    1.254   Os   229      4VA  -0.466000
  4891   O4    2.211   -0.712    1.179   Os   229      4VA  -0.453000
  4892   C1   -1.233    0.544    0.821   Cg   230      4VB   0.305000
  4893   H1   -0.786    0.659    1.810   H2   230      4VB   0.000000
  4894   O5   -1.129    1.832    0.116   Os   230      4VB  -0.408000
  4895   C5    0.254    2.292   -0.215   Cg   230      4VB   0.136000
  4896   H5    0.787    2.460    0.724   H1   230      4VB   0.000000
  4897   C6    0.193    3.628   -0.976   Cg   230      4VB   0.353000
  4898  H62   -0.419    3.538   -1.873   H1   230      4VB   0.000000
  4899  H61    1.196    3.944   -1.270   H1   230      4VB   0.000000
  4900   O6   -0.375    4.628   -0.115   Oh   230      4VB  -0.714000
  4901  H6O   -1.251    4.327    0.145   Ho   230      4VB   0.427000
  4902   C4    1.013    1.194   -0.991   Cg   230      4VB   0.253000
  4903   H4    2.052    1.499   -1.123   H1   230      4VB   0.000000
  4904   C3    0.970   -0.154   -0.239   Cg   230      4VB   0.152000
  4905   H3    1.475   -0.024    0.720   H1   230      4VB   0.000000
  4906   O3    1.736   -1.139   -1.000   Oh   230      4VB  -0.665000
  4907  H3O    2.677   -1.077   -0.807   Ho   230      4VB   0.415000
  4908   C2   -0.496   -0.601    0.042   Cg   230      4VB   0.544000
  4909   H2   -1.008   -0.743   -0.911   H1   230      4VB   0.000000
  4910   N2   -0.517   -1.866    0.812   Ng   230      4VB  -0.686000
  4911  H2N   -0.289   -1.829    1.790    H   230      4VB   0.254000
  4912  C2N   -0.856   -3.038    0.267    C   230      4VB   0.586000
  4913  O2N   -1.172   -3.147   -0.914    O   230      4VB  -0.564000
  4914  CME   -0.818   -4.263    1.203   Cg   230      4VB   0.056000
  4915  H3M   -1.129   -3.987    2.212   Hc   230      4VB   0.000000
  4916  H2M   -1.490   -5.038    0.831   Hc   230      4VB   0.000000
  4917  H1M    0.198   -4.661    1.238   Hc   230      4VB   0.000000
  4918   O4    0.417    1.021   -2.296   Os   230      4VB  -0.444000
  4919   C1   -1.546    1.207   -0.278   Cg   231      4WA   0.462100
  4920   H1   -1.403    2.042   -0.965   H2   231      4WA   0.000000
  4921   C2   -1.114   -0.118   -0.966   Cg   231      4WA   0.275000
  4922   H2   -1.824   -0.331   -1.768   H1   231      4WA   0.000000
  4923   N2    0.224    0.012   -1.588   Ng   231      4WA  -0.475100
  4924  H2N    0.985   -0.496   -1.167    H   231      4WA   0.214200
  4925  C2N    0.457    0.692   -2.715    C   231      4WA   0.590900
  4926  CME    1.908    0.657   -3.226   Cg   231      4WA  -0.034000
  4927  H3M    2.575    1.083   -2.476   Hc   231      4WA   0.000000
  4928  H2M    1.998    1.237   -4.146   Hc   231      4WA   0.000000
  4929  H1M    2.205   -0.373   -3.429   Hc   231      4WA   0.000000
  4930  O2N   -0.425    1.320   -3.296    O   231      4WA  -0.575700
  4931   C3   -1.164   -1.282    0.055   Cg   231      4WA   0.252000
  4932   H3   -2.204   -1.441    0.343   H1   231      4WA   0.000000
  4933   O3   -0.681   -2.511   -0.556   Oh   231      4WA  -0.698700
  4934  H3O   -0.587   -3.193    0.121   Ho   231      4WA   0.415900
  4935   C4   -0.340   -0.982    1.333   Cg   231      4WA   0.321300
  4936   H4    0.719   -0.985    1.068   H1   231      4WA   0.000000
  4937   C5   -0.703    0.380    1.970   Cg   231      4WA   0.242100
  4938   H5   -1.703    0.294    2.399   H1   231      4WA   0.000000
  4939   C6    0.246    0.798    3.116   Cg   231      4WA   0.299500
  4940  H62    0.002    1.809    3.442   H1   231      4WA   0.000000
  4941  H61    0.112    0.134    3.970   H1   231      4WA   0.000000
  4942   O6    1.631    0.758    2.714   Oh   231      4WA  -0.661800
  4943  H6O    1.966   -0.140    2.788   Ho   231      4WA   0.395900
  4944   O5   -0.765    1.462    0.941   Os   231      4WA  -0.541500
  4945   O4   -0.570   -2.032    2.318   Os   231      4WA  -0.482100
  4946   C1   -0.893    0.069    1.752   Cg   232      4WB   0.387000
  4947   H1   -0.411    0.159    2.726   H2   232      4WB   0.000000
  4948   O5   -0.840    1.364    1.071   Os   232      4WB  -0.498000
  4949   C5    0.545    1.880    0.824   Cg   232      4WB   0.321000
  4950   H5    1.027    2.032    1.792   H1   232      4WB   0.000000
  4951   C6    0.448    3.242    0.106   Cg   232      4WB   0.247000
  4952  H62   -0.030    3.119   -0.867   H1   232      4WB   0.000000
  4953  H61    1.442    3.660   -0.051   H1   232      4WB   0.000000
  4954   O6   -0.327    4.170    0.892   Oh   232      4WB  -0.663000
  4955  H6O   -1.192    3.787    1.064   Ho   232      4WB   0.413000
  4956   C4    1.358    0.839    0.016   Cg   232      4WB   0.277000
  4957   H4    0.974    0.794   -1.005   H1   232      4WB   0.000000
  4958   C3    1.280   -0.572    0.654   Cg   232      4WB   0.217000
  4959   H3    1.786   -0.549    1.622   H1   232      4WB   0.000000
  4960   O3    1.987   -1.527   -0.191   Oh   232      4WB  -0.658000
  4961  H3O    1.578   -2.405   -0.121   Ho   232      4WB   0.413000
  4962   C2   -0.184   -1.021    0.895   Cg   232      4WB   0.294000
  4963   H2   -0.161   -1.942    1.480   H1   232      4WB   0.000000
  4964   N2   -0.894   -1.295   -0.380   Ng   232      4WB  -0.558000
  4965  H2N   -1.407   -0.536   -0.797    H   232      4WB   0.265000
  4966  C2N   -0.916   -2.496   -0.969    C   232      4WB   0.585000
  4967  O2N   -0.269   -3.440   -0.521    O   232      4WB  -0.600000
  4968  CME   -1.759   -2.622   -2.256   Cg   232      4WB   0.056000
  4969  H3M   -2.440   -1.775   -2.367   Hc   232      4WB   0.000000
  4970  H2M   -2.348   -3.540   -2.225   Hc   232      4WB   0.000000
  4971  H1M   -1.094   -2.654   -3.119   Hc   232      4WB   0.000000
  4972   O4    2.743    1.257   -0.028   Os   232      4WB  -0.498000
  4973   C1   -0.568    1.539   -0.598   Cg   233      4XA   0.482000
  4974   H1   -0.416    2.322   -1.341   H2   233      4XA   0.000000
  4975   C2   -0.120    0.171   -1.178   Cg   233      4XA   0.197000
  4976   H2    0.893    0.290   -1.565   H1   233      4XA   0.000000
  4977   O2   -0.979   -0.233   -2.292   Oh   233      4XA  -0.656000
  4978  H2O   -1.895    0.003   -2.090   Ho   233      4XA   0.409000
  4979   C3   -0.101   -0.919   -0.086   Cg   233      4XA   0.359000
  4980   H3   -1.125   -1.145    0.219   H1   233      4XA   0.000000
  4981   O3    0.492   -2.116   -0.654   Oh   233      4XA  -0.712000
  4982  H3O    0.116   -2.230   -1.536   Ho   233      4XA   0.421000
  4983   C4    0.729   -0.495    1.149   Cg   233      4XA   0.247000
  4984   H4    1.781   -0.407    0.871   H1   233      4XA   0.000000
  4985   C5    0.241    0.860    1.691   Cg   233      4XA   0.335000
  4986  H5E    0.912    1.211    2.475   H1   233      4XA   0.000000
  4987  H5A   -0.754    0.754    2.126   H1   233      4XA   0.000000
  4988   O5    0.187    1.881    0.608   Os   233      4XA  -0.588000
  4989   O4    0.606   -1.488    2.202   Os   233      4XA  -0.494000
  4990   C1   -1.434    0.190    0.994   Cg   234      4XB   0.248000
  4991   H1   -0.969    0.333    1.970   H2   234      4XB   0.000000
  4992   O5   -1.368    1.450    0.247   Os   234      4XB  -0.447000
  4993   C5   -0.002    1.902   -0.107   Cg   234      4XB   0.303000
  4994  H5E   -0.070    2.827   -0.680   H1   234      4XB   0.000000
  4995  H5A    0.554    2.110    0.810   H1   234      4XB   0.000000
  4996   C4    0.710    0.815   -0.935   Cg   234      4XB   0.286000
  4997   H4    0.211    0.719   -1.901   H1   234      4XB   0.000000
  4998   C3    0.702   -0.550   -0.208   Cg   234      4XB   0.228000
  4999   H3    1.327   -0.481    0.685   H1   234      4XB   0.000000
  5000   O3    1.269   -1.561   -1.092   Oh   234      4XB  -0.682000
  5001  H3O    1.229   -2.414   -0.639   Ho   234      4XB   0.427000
  5002   C2   -0.731   -0.957    0.211   Cg   234      4XB   0.425000
  5003   H2   -1.317   -1.200   -0.678   H1   234      4XB   0.000000
  5004   O2   -0.653   -2.133    1.059   Oh   234      4XB  -0.699000
  5005  H2O   -1.536   -2.278    1.420   Ho   234      4XB   0.398000
  5006   O4    2.079    1.229   -1.155   Os   234      4XB  -0.487000
  5007   C1   -0.691    1.552   -0.015   Cg   235      4YA   0.468000
  5008   H1   -0.521    2.394   -0.686   H2   235      4YA   0.000000
  5009   C2   -0.149    0.256   -0.689   Cg   235      4YA   0.245000
  5010   H2    0.871    0.470   -1.014   H1   235      4YA   0.000000
  5011   N2   -0.939   -0.093   -1.898   Ng   235      4YA  -0.552000
  5012  H2N   -1.914    0.170   -1.880    H   235      4YA   0.236000
  5013  C2N   -0.466   -0.774   -2.948    C   235      4YA   0.588000
  5014  CME   -1.411   -0.952   -4.156   Cg   235      4YA   0.063000
  5015  H3M   -2.365   -0.446   -3.992   Hc   235      4YA   0.000000
  5016  H2M   -0.941   -0.536   -5.048   Hc   235      4YA   0.000000
  5017  H1M   -1.598   -2.014   -4.315   Hc   235      4YA   0.000000
  5018  O2N    0.668   -1.246   -2.945    O   235      4YA  -0.579000
  5019   C3   -0.086   -0.931    0.302   Cg   235      4YA   0.165000
  5020   H3   -1.105   -1.247    0.536   H1   235      4YA   0.000000
  5021   O3    0.618   -2.052   -0.307   Oh   235      4YA  -0.630000
  5022  H3O    0.721   -1.898   -1.267   Ho   235      4YA   0.413000
  5023   C4    0.646   -0.559    1.612   Cg   235      4YA   0.322000
  5024   H4    1.709   -0.433    1.401   H1   235      4YA   0.000000
  5025   C5    0.086    0.726    2.259   Cg   235      4YA   0.246000
  5026   H5   -0.924    0.513    2.615   H1   235      4YA   0.000000
  5027   C6    0.913    1.193    3.476   Cg   235      4YA   0.328000
  5028  H62    0.882    0.438    4.261   H1   235      4YA   0.000000
  5029  H61    0.483    2.110    3.880   H1   235      4YA   0.000000
  5030   O6    2.290    1.442    3.122   Oh   235      4YA  -0.688000
  5031  H6O    2.772    1.736    3.899   Ho   235      4YA   0.421000
  5032   O5   -0.026    1.836    1.256   Os   235      4YA  -0.568000
  5033   O4    0.478   -1.656    2.542   Os   235      4YA  -0.478000
  5034   C1   -1.185    0.520    0.781   Cg   236      4YB   0.287000
  5035   H1   -0.749    0.656    1.771   H2   236      4YB   0.000000
  5036   O5   -1.131    1.801    0.066   Os   236      4YB  -0.433000
  5037   C5    0.243    2.323   -0.200   Cg   236      4YB   0.208000
  5038   H5    0.742    2.479    0.759   H1   236      4YB   0.000000
  5039   C6    0.147    3.675   -0.930   Cg   236      4YB   0.289000
  5040  H62   -0.347    3.550   -1.895   H1   236      4YB   0.000000
  5041  H61    1.141    4.087   -1.104   H1   236      4YB   0.000000
  5042   O6   -0.608    4.605   -0.132   Oh   236      4YB  -0.689000
  5043  H6O   -1.459    4.209    0.072   Ho   236      4YB   0.424000
  5044   C4    1.023    1.268   -1.009   Cg   236      4YB   0.302000
  5045   H4    0.573    1.159   -1.998   H1   236      4YB   0.000000
  5046   C3    1.041   -0.105   -0.295   Cg   236      4YB   0.180000
  5047   H3    1.575   -0.003    0.652   H1   236      4YB   0.000000
  5048   O3    1.782   -1.048   -1.129   Oh   236      4YB  -0.681000
  5049  H3O    1.936   -1.874   -0.656   Ho   236      4YB   0.423000
  5050   C2   -0.406   -0.593    0.001   Cg   236      4YB   0.480000
  5051   H2   -0.913   -0.744   -0.954   H1   236      4YB   0.000000
  5052   N2   -0.389   -1.867    0.762   Ng   236      4YB  -0.722000
  5053  H2N   -0.205   -1.817    1.750    H   236      4YB   0.300000
  5054  C2N   -0.801   -3.030    0.249    C   236      4YB   0.648000
  5055  O2N   -1.112   -3.148   -0.930    O   236      4YB  -0.576000
  5056  CME   -0.819   -4.236    1.210   Cg   236      4YB   0.034000
  5057  H3M   -1.139   -3.928    2.208   Hc   236      4YB   0.000000
  5058  H2M   -1.509   -4.997    0.843   Hc   236      4YB   0.000000
  5059  H1M    0.182   -4.665    1.270   Hc   236      4YB   0.000000
  5060   O4    2.386    1.721   -1.164   Os   236      4YB  -0.474000
  5061   C1   -0.990   -0.093    1.570   Cg   237      4ZA   0.398000
  5062   H1   -1.892   -0.424    2.084   H2   237      4ZA   0.000000
  5063   C2   -0.312   -1.304    0.877   Cg   237      4ZA   0.326000
  5064   H2   -1.073   -1.807    0.279   H1   237      4ZA   0.000000
  5065   O2    0.170   -2.256    1.883   Oh   237      4ZA  -0.732000
  5066  H2O    0.554   -1.739    2.602   Ho   237      4ZA   0.406000
  5067   C3    0.842   -0.877   -0.061   Cg   237      4ZA   0.300000
  5068   H3    1.682   -0.541    0.550   H1   237      4ZA   0.000000
  5069   O3    1.253   -2.062   -0.805   Oh   237      4ZA  -0.743000
  5070  H3O    1.380   -2.768   -0.163   Ho   237      4ZA   0.439000
  5071   C4    0.438    0.263   -1.038   Cg   237      4ZA   0.193000
  5072   H4   -0.228   -0.138   -1.803   H1   237      4ZA   0.000000
  5073   C5   -0.275    1.445   -0.336   Cg   237      4ZA   0.187000
  5074   H5    0.467    1.921    0.310   H1   237      4ZA   0.000000
  5075   C6   -0.676    2.592   -1.372    C   237      4ZA   0.798000
  5076  O6A    0.132    2.844   -2.304   O2   237      4ZA  -0.787000
  5077  O6B   -1.740    3.224   -1.180   O2   237      4ZA  -0.787000
  5078   O5   -1.354    0.927    0.593   Os   237      4ZA  -0.544000
  5079   O4    1.625    0.794   -1.685   Os   237      4ZA  -0.454000
  5080   C1   -1.564   -0.298    1.079   Cg   238      4ZB   0.251000
  5081   H1   -1.150   -0.162    2.079   H2   238      4ZB   0.000000
  5082   O5   -1.439    0.955    0.340   Os   238      4ZB  -0.413000
  5083   C5   -0.040    1.430    0.067   Cg   238      4ZB   0.075000
  5084   H5    0.449    1.548    1.036   H1   238      4ZB   0.000000
  5085   C6    0.109    2.834   -0.652    C   238      4ZB   0.893000
  5086  O6B    1.238    3.122   -1.126   O2   238      4ZB  -0.818000
  5087  O6A   -0.888    3.590   -0.689   O2   238      4ZB  -0.818000
  5088   C4    0.703    0.326   -0.711   Cg   238      4ZB   0.267000
  5089   H4    0.272    0.264   -1.712   H1   238      4ZB   0.000000
  5090   C3    0.618   -1.067   -0.031   Cg   238      4ZB   0.266000
  5091   H3    1.216   -1.048    0.883   H1   238      4ZB   0.000000
  5092   O3    1.204   -2.038   -0.949   Oh   238      4ZB  -0.701000
  5093  H3O    2.046   -1.656   -1.230   Ho   238      4ZB   0.403000
  5094   C2   -0.838   -1.456    0.334   Cg   238      4ZB   0.411000
  5095   H2   -1.387   -1.692   -0.580   H1   238      4ZB   0.000000
  5096   O2   -0.865   -2.619    1.212   Oh   238      4ZB  -0.740000
  5097  H2O   -1.782   -2.728    1.482   Ho   238      4ZB   0.422000
  5098   O4    2.098    0.696   -0.834   Os   238      4ZB  -0.498000
  5099   C1   -0.985    1.068    1.313   Cg   239      6EA   0.480000
  5100   H1   -1.919    1.131    1.873   H2   239      6EA   0.000000
  5101   C2   -0.169   -0.140    1.825   Cg   239      6EA   0.179000
  5102   H2    0.249    0.083    2.809   H1   239      6EA   0.000000
  5103   O2   -1.091   -1.230    1.985   Oh   239      6EA  -0.690000
  5104  H2O   -1.788   -0.973    2.593   Ho   239      6EA   0.447000
  5105   C3    0.947   -0.618    0.876   Cg   239      6EA   0.328000
  5106   H3    1.322   -1.591    1.198   H1   239      6EA   0.000000
  5107   O3    2.025    0.335    0.984   Oh   239      6EA  -0.714000
  5108  H3O    2.325    0.377    1.895   Ho   239      6EA   0.420000
  5109   C4    0.460   -0.701   -0.587   Cg   239      6EA   0.261000
  5110   H4   -0.260   -1.517   -0.660   H1   239      6EA   0.000000
  5111   O4    1.573   -1.021   -1.441   Oh   239      6EA  -0.721000
  5112  H4O    2.232   -0.326   -1.380   Ho   239      6EA   0.415000
  5113   C5   -0.219    0.594   -1.073   Cg   239      6EA   0.374000
  5114   H5    0.508    1.408   -1.061   H1   239      6EA   0.000000
  5115   O5   -1.315    0.917   -0.124   Os   239      6EA  -0.587000
  5116   C6   -0.832    0.489   -2.476   Cg   239      6EA   0.259000
  5117  H62   -0.077    0.186   -3.201   H1   239      6EA   0.000000
  5118  H61   -1.639   -0.245   -2.491   H1   239      6EA   0.000000
  5119   O6   -1.347    1.772   -2.856   Os   239      6EA  -0.451000
  5120   C1   -1.650   -0.572    1.096   Cg   240      6EB   0.488000
  5121   H1   -1.274   -0.469    2.114   H2   240      6EB   0.000000
  5122   O5   -1.516    0.715    0.403   Os   240      6EB  -0.532000
  5123   C5   -0.102    1.172    0.189   Cg   240      6EB   0.257000
  5124   H5    0.355    1.342    1.166   H1   240      6EB   0.000000
  5125   C4    0.694    0.075   -0.560   Cg   240      6EB   0.320000
  5126   H4    0.286   -0.025   -1.567   H1   240      6EB   0.000000
  5127   O4    2.095    0.456   -0.688   Oh   240      6EB  -0.724000
  5128  H4O    2.502   -0.022   -1.419   Ho   240      6EB   0.420000
  5129   C3    0.578   -1.296    0.163   Cg   240      6EB   0.315000
  5130   H3    1.101   -2.055   -0.421   H1   240      6EB   0.000000
  5131   O3    1.197   -1.235    1.477   Oh   240      6EB  -0.681000
  5132  H3O    2.080   -0.858    1.381   Ho   240      6EB   0.403000
  5133   C2   -0.894   -1.710    0.342   Cg   240      6EB   0.184000
  5134   H2   -0.952   -2.631    0.923   H1   240      6EB   0.000000
  5135   O2   -1.451   -1.970   -0.985   Oh   240      6EB  -0.697000
  5136  H2O   -2.394   -2.157   -0.887   Ho   240      6EB   0.432000
  5137   C6   -0.114    2.506   -0.583   Cg   240      6EB   0.278000
  5138  H62   -0.565    2.366   -1.567   H1   240      6EB   0.000000
  5139  H61    0.900    2.879   -0.721   H1   240      6EB   0.000000
  5140   O6   -0.875    3.488    0.144   Os   240      6EB  -0.463000
  5141   C1   -1.026   -0.271    1.699   Cg   241      6GA   0.509000
  5142   H1   -1.935   -0.631    2.180   H2   241      6GA   0.000000
  5143   C2   -0.310   -1.449    0.977   Cg   241      6GA   0.246000
  5144   H2   -1.048   -1.945    0.344   H1   241      6GA   0.000000
  5145   O2    0.194   -2.438    1.933   Oh   241      6GA  -0.713000
  5146  H2O    0.565   -1.979    2.698   Ho   241      6GA   0.437000
  5147   C3    0.840   -0.945    0.080   Cg   241      6GA   0.286000
  5148   H3    1.649   -0.569    0.710   H1   241      6GA   0.000000
  5149   O3    1.340   -2.062   -0.701   Oh   241      6GA  -0.699000
  5150  H3O    1.401   -2.824   -0.108   Ho   241      6GA   0.427000
  5151   C4    0.377    0.168   -0.890   Cg   241      6GA   0.254000
  5152   H4   -0.329   -0.249   -1.611   H1   241      6GA   0.000000
  5153   O4    1.531    0.677   -1.608   Oh   241      6GA  -0.710000
  5154  H4O    2.002   -0.086   -1.972   Ho   241      6GA   0.436000
  5155   C5   -0.294    1.330   -0.130   Cg   241      6GA   0.283000
  5156   H5    0.459    1.806    0.502   H1   241      6GA   0.000000
  5157   O5   -1.378    0.790    0.756   Os   241      6GA  -0.574000
  5158   C6   -0.883    2.399   -1.079   Cg   241      6GA   0.276000
  5159  H62   -0.170    2.651   -1.864   H1   241      6GA   0.000000
  5160  H61   -1.787    2.017   -1.556   H1   241      6GA   0.000000
  5161   O6   -1.199    3.609   -0.358   Os   241      6GA  -0.458000
  5162   C1   -1.583   -0.488    1.096   Cg   242      6GB   0.384000
  5163   H1   -1.188   -0.376    2.107   H2   242      6GB   0.000000
  5164   O5   -1.522    0.805    0.409   Os   242      6GB  -0.471000
  5165   C5   -0.146    1.342    0.178   Cg   242      6GB   0.225000
  5166   H5    0.338    1.475    1.148   H1   242      6GB   0.000000
  5167   C4    0.658    0.318   -0.651   Cg   242      6GB   0.276000
  5168   H4    0.229    0.248   -1.653   H1   242      6GB   0.000000
  5169   O4    2.027    0.776   -0.761   Oh   242      6GB  -0.714000
  5170  H4O    2.537    0.065   -1.174   Ho   242      6GB   0.440000
  5171   C3    0.642   -1.080    0.013   Cg   242      6GB   0.284000
  5172   H3    1.201   -1.037    0.950   H1   242      6GB   0.000000
  5173   O3    1.299   -2.027   -0.873   Oh   242      6GB  -0.709000
  5174  H3O    1.207   -2.905   -0.477   Ho   242      6GB   0.432000
  5175   C2   -0.794   -1.568    0.306   Cg   242      6GB   0.310000
  5176   H2   -1.307   -1.771   -0.636   H1   242      6GB   0.000000
  5177   O2   -0.726   -2.804    1.078   Oh   242      6GB  -0.718000
  5178  H2O   -1.628   -3.060    1.313   Ho   242      6GB   0.437000
  5179   C6   -0.244    2.715   -0.514   Cg   242      6GB   0.282000
  5180  H62   -0.713    2.611   -1.494   H1   242      6GB   0.000000
  5181  H61    0.747    3.147   -0.652   H1   242      6GB   0.000000
  5182   O6   -1.035    3.611    0.289   Os   242      6GB  -0.458000
  5183   C1   -1.078    1.000    1.253   Cg   243      6KA   0.473000
  5184   H1   -2.012    1.025    1.815   H2   243      6KA   0.000000
  5185   C2   -0.218   -0.177    1.760   Cg   243      6KA   0.281000
  5186   H2   -0.868   -1.054    1.761   H1   243      6KA   0.000000
  5187   O2    0.181    0.033    3.127   Oh   243      6KA  -0.716000
  5188  H2O    0.742    0.810    3.179   Ho   243      6KA   0.427000
  5189   C3    1.000   -0.529    0.880   Cg   243      6KA   0.354000
  5190   H3    1.451   -1.460    1.226   H1   243      6KA   0.000000
  5191   O3    1.994    0.510    0.967   Oh   243      6KA  -0.744000
  5192  H3O    2.277    0.605    1.879   Ho   243      6KA   0.436000
  5193   C4    0.599   -0.653   -0.603   Cg   243      6KA   0.196000
  5194   H4    1.495   -0.740   -1.220   H1   243      6KA   0.000000
  5195   O4   -0.155   -1.872   -0.743   Oh   243      6KA  -0.712000
  5196  H4O   -0.402   -1.992   -1.663   Ho   243      6KA   0.420000
  5197   C5   -0.255    0.538   -1.102   Cg   243      6KA   0.301000
  5198   H5    0.381    1.426   -1.082   H1   243      6KA   0.000000
  5199   O5   -1.397    0.767   -0.175   Os   243      6KA  -0.540000
  5200   C6   -0.799    0.390   -2.530   Cg   243      6KA   0.287000
  5201  H62    0.012    0.157   -3.220   H1   243      6KA   0.000000
  5202  H61   -1.539   -0.410   -2.583   H1   243      6KA   0.000000
  5203   O6   -1.407    1.626   -2.926   Os   243      6KA  -0.463000
  5204   C1   -1.504   -0.403    1.096   Cg   244      6KB   0.449000
  5205   H1   -1.110   -0.252    2.102   H2   244      6KB   0.000000
  5206   O5   -1.412    0.850    0.342   Os   244      6KB  -0.514000
  5207   C5   -0.017    1.308    0.040   Cg   244      6KB   0.303000
  5208   H5    0.485    1.503    0.990   H1   244      6KB   0.000000
  5209   C4    0.782    0.200   -0.700   Cg   244      6KB   0.217000
  5210   H4    1.824    0.511   -0.781   H1   244      6KB   0.000000
  5211   O4    0.273    0.004   -2.049   Oh   244      6KB  -0.700000
  5212  H4O    0.915   -0.477   -2.583   Ho   244      6KB   0.425000
  5213   C3    0.705   -1.143    0.060   Cg   244      6KB   0.253000
  5214   H3    1.182   -1.924   -0.534   H1   244      6KB   0.000000
  5215   O3    1.454   -1.002    1.296   Oh   244      6KB  -0.710000
  5216  H3O    1.338   -1.822    1.797   Ho   244      6KB   0.442000
  5217   C2   -0.755   -1.555    0.363   Cg   244      6KB   0.308000
  5218   H2   -1.261   -1.759   -0.582   H1   244      6KB   0.000000
  5219   O2   -0.758   -2.788    1.148   Oh   244      6KB  -0.710000
  5220  H2O   -1.675   -3.018    1.343   Ho   244      6KB   0.426000
  5221   C6   -0.071    2.636   -0.742   Cg   244      6KB   0.259000
  5222  H62   -0.638    2.513   -1.665   H1   244      6KB   0.000000
  5223  H61    0.937    2.960   -1.000   H1   244      6KB   0.000000
  5224   O6   -0.696    3.658    0.059   Os   244      6KB  -0.448000
  5225   C1   -1.113    1.066    1.209   Cg   245      6LA   0.465000
  5226   H1   -2.064    1.079    1.741   H2   245      6LA   0.000000
  5227   C2   -0.250   -0.099    1.746   Cg   245      6LA   0.339000
  5228   H2   -0.867   -0.999    1.759   H1   245      6LA   0.000000
  5229   O2    0.146    0.184    3.101   Oh   245      6LA  -0.724000
  5230  H2O    0.674    0.985    3.119   Ho   245      6LA   0.431000
  5231   C3    0.995   -0.358    0.875   Cg   245      6LA   0.253000
  5232   H3    1.673    0.493    0.956   H1   245      6LA   0.000000
  5233   O3    1.690   -1.529    1.344   Oh   245      6LA  -0.701000
  5234  H3O    1.932   -1.410    2.265   Ho   245      6LA   0.433000
  5235   C4    0.623   -0.551   -0.611   Cg   245      6LA   0.204000
  5236   H4    1.531   -0.652   -1.208   H1   245      6LA   0.000000
  5237   O4   -0.171   -1.748   -0.765   Oh   245      6LA  -0.673000
  5238  H4O   -0.403   -1.862   -1.689   Ho   245      6LA   0.436000
  5239   C5   -0.203    0.650   -1.120   Cg   245      6LA   0.216000
  5240   H5    0.430    1.537   -1.051   H1   245      6LA   0.000000
  5241   O5   -1.383    0.847   -0.232   Os   245      6LA  -0.527000
  5242   C6   -0.687    0.534   -2.571   Cg   245      6LA   0.308000
  5243  H62    0.152    0.320   -3.233   H1   245      6LA   0.000000
  5244  H61   -1.422   -0.266   -2.674   H1   245      6LA   0.000000
  5245   O6   -1.284    1.778   -2.962   Os   245      6LA  -0.460000
  5246   C1   -1.484   -0.434    1.172   Cg   246      6LB   0.374000
  5247   H1   -1.090   -0.325    2.183   H2   246      6LB   0.000000
  5248   O5   -1.407    0.867    0.494   Os   246      6LB  -0.402000
  5249   C5   -0.031    1.376    0.206   Cg   246      6LB   0.140000
  5250   H5    0.485    1.512    1.159   H1   246      6LB   0.000000
  5251   C4    0.762    0.332   -0.611   Cg   246      6LB   0.203000
  5252   H4    1.794    0.667   -0.721   H1   246      6LB   0.000000
  5253   O4    0.179    0.202   -1.932   Oh   246      6LB  -0.664000
  5254  H4O    0.626   -0.535   -2.370   Ho   246      6LB   0.437000
  5255   C3    0.744   -1.040    0.101   Cg   246      6LB   0.259000
  5256   H3    1.280   -0.938    1.047   H1   246      6LB   0.000000
  5257   O3    1.463   -2.009   -0.713   Oh   246      6LB  -0.694000
  5258  H3O    1.396   -2.866   -0.270   Ho   246      6LB   0.433000
  5259   C2   -0.693   -1.529    0.396   Cg   246      6LB   0.357000
  5260   H2   -1.205   -1.755   -0.542   H1   246      6LB   0.000000
  5261   O2   -0.619   -2.747    1.196   Oh   246      6LB  -0.726000
  5262  H2O   -1.520   -3.001    1.429   Ho   246      6LB   0.432000
  5263   C6   -0.117    2.748   -0.487   Cg   246      6LB   0.319000
  5264  H62   -0.709    2.684   -1.401   H1   246      6LB   0.000000
  5265  H61    0.880    3.106   -0.744   H1   246      6LB   0.000000
  5266   O6   -0.733    3.687    0.409   Os   246      6LB  -0.468000
  5267   C1   -1.117   -0.213    1.787   Cg   247      6MA   0.433000
  5268   H1   -2.082   -0.530    2.183   H2   247      6MA   0.000000
  5269   C2   -0.411   -1.420    1.106   Cg   247      6MA   0.245000
  5270   H2   -0.107   -2.139    1.868   H1   247      6MA   0.000000
  5271   O2   -1.336   -2.092    0.199   Oh   247      6MA  -0.717000
  5272  H2O   -0.835   -2.701   -0.357   Ho   247      6MA   0.446000
  5273   C3    0.836   -0.949    0.324   Cg   247      6MA   0.252000
  5274   H3    1.563   -0.554    1.037   H1   247      6MA   0.000000
  5275   O3    1.453   -2.090   -0.347   Oh   247      6MA  -0.696000
  5276  H3O    1.920   -2.633    0.298   Ho   247      6MA   0.431000
  5277   C4    0.484    0.165   -0.694   Cg   247      6MA   0.326000
  5278   H4   -0.188   -0.230   -1.458   H1   247      6MA   0.000000
  5279   O4    1.707    0.616   -1.333   Oh   247      6MA  -0.733000
  5280  H4O    2.154   -0.166   -1.681   Ho   247      6MA   0.438000
  5281   C5   -0.178    1.365    0.020   Cg   247      6MA   0.276000
  5282   H5    0.561    1.818    0.684   H1   247      6MA   0.000000
  5283   O5   -1.331    0.904    0.857   Os   247      6MA  -0.507000
  5284   C6   -0.665    2.439   -0.977   Cg   247      6MA   0.266000
  5285  H62    0.108    2.657   -1.713   H1   247      6MA   0.000000
  5286  H61   -1.547    2.082   -1.511   H1   247      6MA   0.000000
  5287   O6   -0.990    3.669   -0.293   Os   247      6MA  -0.460000
  5288   C1   -1.581   -0.548    1.275   Cg   248      6MB   0.314000
  5289   H1   -1.099   -0.506    2.253   H2   248      6MB   0.000000
  5290   O5   -1.472    0.772    0.638   Os   248      6MB  -0.393000
  5291   C5   -0.083    1.231    0.315   Cg   248      6MB   0.206000
  5292   H5    0.440    1.398    1.259   H1   248      6MB   0.000000
  5293   C4    0.680    0.150   -0.493   Cg   248      6MB   0.349000
  5294   H4    0.271    0.086   -1.502   H1   248      6MB   0.000000
  5295   O4    2.074    0.547   -0.582   Oh   248      6MB  -0.746000
  5296  H4O    2.476    0.080   -1.322   Ho   248      6MB   0.443000
  5297   C3    0.575   -1.229    0.212   Cg   248      6MB   0.263000
  5298   H3    1.024   -1.148    1.204   H1   248      6MB   0.000000
  5299   O3    1.311   -2.264   -0.501   Oh   248      6MB  -0.692000
  5300  H3O    2.244   -2.215   -0.269   Ho   248      6MB   0.430000
  5301   C2   -0.906   -1.637    0.394   Cg   248      6MB   0.241000
  5302   H2   -0.970   -2.606    0.890   H1   248      6MB   0.000000
  5303   O2   -1.583   -1.715   -0.897   Oh   248      6MB  -0.664000
  5304  H2O   -2.518   -1.874   -0.725   Ho   248      6MB   0.431000
  5305   C6   -0.163    2.566   -0.445   Cg   248      6MB   0.273000
  5306  H62   -0.685    2.430   -1.394   H1   248      6MB   0.000000
  5307  H61    0.837    2.947   -0.656   H1   248      6MB   0.000000
  5308   O6   -0.872    3.537    0.345   Os   248      6MB  -0.455000
  5309   C1   -1.170    1.032    1.291   Cg   249      6NA   0.478000
  5310   H1   -2.116    1.126    1.824   H2   249      6NA   0.000000
  5311   C2   -0.433   -0.228    1.795   Cg   249      6NA   0.228000
  5312   H2   -1.150   -1.049    1.744   H1   249      6NA   0.000000
  5313   O2   -0.073   -0.085    3.181   Oh   249      6NA  -0.668000
  5314  H2O    0.562    0.629    3.273   Ho   249      6NA   0.415000
  5315   C3    0.788   -0.649    0.955   Cg   249      6NA   0.330000
  5316   H3    1.171   -1.608    1.309   H1   249      6NA   0.000000
  5317   O3    1.830    0.345    1.083   Oh   249      6NA  -0.714000
  5318  H3O    2.608    0.055    0.602   Ho   249      6NA   0.441000
  5319   C4    0.354   -0.765   -0.521   Cg   249      6NA   0.167000
  5320   H4   -0.342   -1.600   -0.603   H1   249      6NA   0.000000
  5321   O4    1.504   -1.072   -1.330   Oh   249      6NA  -0.733000
  5322  H4O    2.132   -0.348   -1.281   Ho   249      6NA   0.444000
  5323   C5   -0.339    0.504   -1.064   Cg   249      6NA   0.404000
  5324   H5    0.379    1.327   -1.074   H1   249      6NA   0.000000
  5325   O5   -1.460    0.861   -0.151   Os   249      6NA  -0.611000
  5326   C6   -0.923    0.334   -2.474   Cg   249      6NA   0.280000
  5327  H62   -0.150    0.015   -3.172   H1   249      6NA   0.000000
  5328  H61   -1.717   -0.415   -2.474   H1   249      6NA   0.000000
  5329   O6   -1.454    1.591   -2.915   Os   249      6NA  -0.461000
  5330   C1   -1.579   -0.478    0.998   Cg   250      6NB   0.422000
  5331   H1   -1.178   -0.356    2.006   H2   250      6NB   0.000000
  5332   O5   -1.485    0.801    0.279   Os   250      6NB  -0.507000
  5333   C5   -0.097    1.269   -0.046   Cg   250      6NB   0.198000
  5334   H5    0.441    1.430    0.889   H1   250      6NB   0.000000
  5335   C4    0.616    0.163   -0.860   Cg   250      6NB   0.286000
  5336   H4    0.087    0.029   -1.804   H1   250      6NB   0.000000
  5337   O4    1.976    0.551   -1.165   Oh   250      6NB  -0.707000
  5338  H4O    2.530    0.323   -0.408   Ho   250      6NB   0.430000
  5339   C3    0.619   -1.182   -0.098   Cg   250      6NB   0.234000
  5340   H3    1.093   -1.951   -0.711   H1   250      6NB   0.000000
  5341   O3    1.376   -1.045    1.140   Oh   250      6NB  -0.615000
  5342  H3O    1.214   -1.837    1.670   Ho   250      6NB   0.389000
  5343   C2   -0.830   -1.606    0.227   Cg   250      6NB   0.301000
  5344   H2   -1.350   -1.795   -0.716   H1   250      6NB   0.000000
  5345   O2   -0.807   -2.853    0.983   Oh   250      6NB  -0.703000
  5346  H2O   -1.719   -3.118    1.160   Ho   250      6NB   0.424000
  5347   C6   -0.169    2.611   -0.800   Cg   250      6NB   0.313000
  5348  H62   -0.699    2.487   -1.745   H1   250      6NB   0.000000
  5349  H61    0.832    2.988   -1.010   H1   250      6NB   0.000000
  5350   O6   -0.869    3.571    0.010   Os   250      6NB  -0.465000
  5351   C1   -0.982    1.164    1.264   Cg   251      6TA   0.456000
  5352   H1   -1.945    1.176    1.777   H2   251      6TA   0.000000
  5353   C2   -0.120    0.016    1.827   Cg   251      6TA   0.245000
  5354   H2    0.233    0.267    2.828   H1   251      6TA   0.000000
  5355   O2   -0.986   -1.130    1.933   Oh   251      6TA  -0.655000
  5356  H2O   -1.729   -0.918    2.502   Ho   251      6TA   0.436000
  5357   C3    1.085   -0.304    0.914   Cg   251      6TA   0.124000
  5358   H3    1.769    0.542    0.990   H1   251      6TA   0.000000
  5359   O3    1.802   -1.454    1.400   Oh   251      6TA  -0.687000
  5360  H3O    2.051   -1.312    2.316   Ho   251      6TA   0.442000
  5361   C4    0.743   -0.467   -0.581   Cg   251      6TA   0.434000
  5362   H4    1.664   -0.560   -1.160   H1   251      6TA   0.000000
  5363   O4   -0.051   -1.653   -0.786   Oh   251      6TA  -0.731000
  5364  H4O   -0.256   -1.744   -1.720   Ho   251      6TA   0.417000
  5365   C5   -0.051    0.763   -1.071   Cg   251      6TA   0.157000
  5366   H5    0.603    1.633   -0.982   H1   251      6TA   0.000000
  5367   O5   -1.230    0.978   -0.189   Os   251      6TA  -0.480000
  5368   C6   -0.531    0.685   -2.527   Cg   251      6TA   0.304000
  5369  H62    0.306    0.459   -3.188   H1   251      6TA   0.000000
  5370  H61   -1.287   -0.092   -2.647   H1   251      6TA   0.000000
  5371   O6   -1.089    1.952   -2.900   Os   251      6TA  -0.462000
  5372   C1   -1.625    0.418    1.130   Cg   252      6TB   0.306000
  5373   H1   -1.380    1.367    1.608   H2   252      6TB   0.000000
  5374   O5   -1.453    0.577   -0.332   Os   252      6TB  -0.354000
  5375   C5   -0.093    1.000   -0.759   Cg   252      6TB   0.031000
  5376   H5    0.145    1.938   -0.254   H1   252      6TB   0.000000
  5377   C4    0.942   -0.052   -0.295   Cg   252      6TB   0.314000
  5378   H4    1.950    0.322   -0.485   H1   252      6TB   0.000000
  5379   O4    0.753   -1.263   -1.056   Oh   252      6TB  -0.626000
  5380  H4O    0.865   -1.074   -1.990   Ho   252      6TB   0.413000
  5381   C3    0.772   -0.338    1.216   Cg   252      6TB   0.174000
  5382   H3    1.056    0.573    1.743   H1   252      6TB   0.000000
  5383   O3    1.687   -1.362    1.646   Oh   252      6TB  -0.678000
  5384  H3O    1.472   -2.187    1.204   Ho   252      6TB   0.425000
  5385   C2   -0.670   -0.676    1.655   Cg   252      6TB   0.340000
  5386   H2   -0.725   -0.729    2.743   H1   252      6TB   0.000000
  5387   O2   -1.062   -1.952    1.104   Oh   252      6TB  -0.637000
  5388  H2O   -1.968   -2.145    1.358   Ho   252      6TB   0.397000
  5389   C6   -0.110    1.275   -2.269   Cg   252      6TB   0.349000
  5390  H62   -0.460    0.401   -2.820   H1   252      6TB   0.000000
  5391  H61    0.891    1.528   -2.619   H1   252      6TB   0.000000
  5392   O6   -0.987    2.380   -2.529   Os   252      6TB  -0.454000
  5393   C1   -0.453    1.463    0.108   Cg   253      6VA   0.389000
  5394   H1   -0.267    2.265   -0.606   H2   253      6VA   0.000000
  5395   C2   -0.073    0.100   -0.559   Cg   253      6VA   0.399000
  5396   H2    0.939    0.202   -0.959   H1   253      6VA   0.000000
  5397   N2   -0.977   -0.232   -1.686   Ng   253      6VA  -0.595000
  5398  H2N   -1.849   -0.684   -1.461    H   253      6VA   0.238000
  5399  C2N   -0.815    0.274   -2.912    C   253      6VA   0.625000
  5400  CME   -1.897   -0.087   -3.948   Cg   253      6VA   0.032000
  5401  H3M   -2.888    0.115   -3.540   Hc   253      6VA   0.000000
  5402  H2M   -1.764    0.507   -4.854   Hc   253      6VA   0.000000
  5403  H1M   -1.821   -1.145   -4.205   Hc   253      6VA   0.000000
  5404  O2N    0.145    0.981   -3.199    O   253      6VA  -0.605000
  5405   C3   -0.057   -1.042    0.490   Cg   253      6VA   0.176000
  5406   H3   -1.072   -1.182    0.864   H1   253      6VA   0.000000
  5407   O3    0.374   -2.315   -0.086   Oh   253      6VA  -0.678000
  5408  H3O   -0.197   -2.562   -0.823   Ho   253      6VA   0.425000
  5409   C4    0.852   -0.700    1.694   Cg   253      6VA   0.326000
  5410   H4    0.776   -1.495    2.437   H1   253      6VA   0.000000
  5411   O4    2.227   -0.632    1.240   Oh   253      6VA  -0.701000
  5412  H4O    2.383   -1.425    0.707   Ho   253      6VA   0.442000
  5413   C5    0.435    0.642    2.342   Cg   253      6VA   0.112000
  5414   H5   -0.568    0.500    2.746   H1   253      6VA   0.000000
  5415   O5    0.345    1.727    1.314   Os   253      6VA  -0.466000
  5416   C6    1.318    1.088    3.527   Cg   253      6VA   0.362000
  5417  H62    0.921    2.001    3.969   H1   253      6VA   0.000000
  5418  H61    1.317    0.314    4.295   H1   253      6VA   0.000000
  5419   O6    2.669    1.321    3.104   Os   253      6VA  -0.481000
  5420   C1   -1.306    0.698    0.925   Cg   254      6VB   0.305000
  5421   H1   -0.859    0.812    1.913   H2   254      6VB   0.000000
  5422   O5   -1.202    1.986    0.220   Os   254      6VB  -0.408000
  5423   C5    0.181    2.446   -0.111   Cg   254      6VB   0.136000
  5424   H5    0.714    2.614    0.827   H1   254      6VB   0.000000
  5425   C4    0.939    1.347   -0.887   Cg   254      6VB   0.253000
  5426   H4    1.979    1.652   -1.019   H1   254      6VB   0.000000
  5427   O4    0.343    1.175   -2.192   Oh   254      6VB  -0.690000
  5428  H4O    0.652    0.332   -2.554   Ho   254      6VB   0.440000
  5429   C3    0.897   -0.001   -0.135   Cg   254      6VB   0.152000
  5430   H3    1.402    0.130    0.824   H1   254      6VB   0.000000
  5431   O3    1.663   -0.986   -0.897   Oh   254      6VB  -0.665000
  5432  H3O    2.604   -0.923   -0.703   Ho   254      6VB   0.415000
  5433   C2   -0.569   -0.447    0.146   Cg   254      6VB   0.544000
  5434   H2   -1.081   -0.589   -0.807   H1   254      6VB   0.000000
  5435   N2   -0.590   -1.712    0.915   Ng   254      6VB  -0.686000
  5436  H2N   -0.363   -1.675    1.894    H   254      6VB   0.254000
  5437  C2N   -0.930   -2.884    0.370    C   254      6VB   0.586000
  5438  O2N   -1.245   -2.993   -0.810    O   254      6VB  -0.564000
  5439  CME   -0.891   -4.110    1.307   Cg   254      6VB   0.056000
  5440  H3M   -1.202   -3.833    2.316   Hc   254      6VB   0.000000
  5441  H2M   -1.563   -4.884    0.935   Hc   254      6VB   0.000000
  5442  H1M    0.124   -4.508    1.341   Hc   254      6VB   0.000000
  5443   C6    0.120    3.782   -0.872   Cg   254      6VB   0.353000
  5444  H62   -0.492    3.691   -1.770   H1   254      6VB   0.000000
  5445  H61    1.122    4.097   -1.166   H1   254      6VB   0.000000
  5446   O6   -0.448    4.782   -0.012   Os   254      6VB  -0.481000
  5447   C1   -1.417    1.281   -0.267   Cg   255      6WA   0.462100
  5448   H1   -1.274    2.115   -0.954   H2   255      6WA   0.000000
  5449   C2   -0.986   -0.044   -0.955   Cg   255      6WA   0.275000
  5450   H2   -1.695   -0.257   -1.758   H1   255      6WA   0.000000
  5451   N2    0.353    0.085   -1.578   Ng   255      6WA  -0.475100
  5452  H2N    1.114   -0.423   -1.157    H   255      6WA   0.214200
  5453  C2N    0.586    0.766   -2.704    C   255      6WA   0.590900
  5454  CME    2.037    0.731   -3.216   Cg   255      6WA  -0.034000
  5455  H3M    2.704    1.157   -2.465   Hc   255      6WA   0.000000
  5456  H2M    2.127    1.311   -4.136   Hc   255      6WA   0.000000
  5457  H1M    2.334   -0.299   -3.418   Hc   255      6WA   0.000000
  5458  O2N   -0.296    1.394   -3.285    O   255      6WA  -0.575700
  5459   C3   -1.035   -1.208    0.066   Cg   255      6WA   0.252000
  5460   H3   -2.075   -1.367    0.354   H1   255      6WA   0.000000
  5461   O3   -0.552   -2.437   -0.545   Oh   255      6WA  -0.698700
  5462  H3O   -0.459   -3.119    0.131   Ho   255      6WA   0.415900
  5463   C4   -0.211   -0.908    1.344   Cg   255      6WA   0.321300
  5464   H4    0.847   -0.911    1.078   H1   255      6WA   0.000000
  5465   O4   -0.441   -1.959    2.328   Oh   255      6WA  -0.730500
  5466  H4O   -1.382   -2.059    2.513   Ho   255      6WA   0.442400
  5467   C5   -0.574    0.454    1.981   Cg   255      6WA   0.242100
  5468   H5   -1.574    0.368    2.409   H1   255      6WA   0.000000
  5469   O5   -0.637    1.536    0.951   Os   255      6WA  -0.541500
  5470   C6    0.374    0.872    3.127   Cg   255      6WA   0.299500
  5471  H62    0.130    1.883    3.452   H1   255      6WA   0.000000
  5472  H61    0.241    0.207    3.980   H1   255      6WA   0.000000
  5473   O6    1.760    0.832    2.725   Os   255      6WA  -0.459900
  5474   C1   -1.058    0.190    1.806   Cg   256      6WB   0.387000
  5475   H1   -0.576    0.280    2.780   H2   256      6WB   0.000000
  5476   O5   -1.005    1.485    1.125   Os   256      6WB  -0.498000
  5477   C5    0.380    2.001    0.879   Cg   256      6WB   0.321000
  5478   H5    0.862    2.152    1.847   H1   256      6WB   0.000000
  5479   C4    1.194    0.960    0.071   Cg   256      6WB   0.277000
  5480   H4    0.809    0.915   -0.951   H1   256      6WB   0.000000
  5481   O4    2.578    1.378    0.027   Oh   256      6WB  -0.743000
  5482  H4O    3.090    0.648   -0.350   Ho   256      6WB   0.439000
  5483   C3    1.115   -0.452    0.709   Cg   256      6WB   0.217000
  5484   H3    1.621   -0.428    1.676   H1   256      6WB   0.000000
  5485   O3    1.822   -1.406   -0.137   Oh   256      6WB  -0.658000
  5486  H3O    1.413   -2.285   -0.067   Ho   256      6WB   0.413000
  5487   C2   -0.349   -0.900    0.950   Cg   256      6WB   0.294000
  5488   H2   -0.326   -1.822    1.535   H1   256      6WB   0.000000
  5489   N2   -1.059   -1.175   -0.325   Ng   256      6WB  -0.558000
  5490  H2N   -1.572   -0.415   -0.743    H   256      6WB   0.265000
  5491  C2N   -1.081   -2.375   -0.914    C   256      6WB   0.585000
  5492  O2N   -0.434   -3.319   -0.467    O   256      6WB  -0.600000
  5493  CME   -1.924   -2.501   -2.202   Cg   256      6WB   0.056000
  5494  H3M   -2.605   -1.654   -2.312   Hc   256      6WB   0.000000
  5495  H2M   -2.513   -3.419   -2.170   Hc   256      6WB   0.000000
  5496  H1M   -1.259   -2.533   -3.064   Hc   256      6WB   0.000000
  5497   C6    0.283    3.363    0.161   Cg   256      6WB   0.247000
  5498  H62   -0.195    3.240   -0.812   H1   256      6WB   0.000000
  5499  H61    1.277    3.781    0.003   H1   256      6WB   0.000000
  5500   O6   -0.492    4.291    0.947   Os   256      6WB  -0.444000
  5501   C1   -0.614    1.707    0.053   Cg   257      6YA   0.468000
  5502   H1   -0.444    2.550   -0.617   H2   257      6YA   0.000000
  5503   C2   -0.072    0.411   -0.621   Cg   257      6YA   0.245000
  5504   H2    0.948    0.626   -0.946   H1   257      6YA   0.000000
  5505   N2   -0.863    0.062   -1.830   Ng   257      6YA  -0.552000
  5506  H2N   -1.837    0.325   -1.812    H   257      6YA   0.236000
  5507  C2N   -0.389   -0.618   -2.880    C   257      6YA   0.588000
  5508  CME   -1.335   -0.797   -4.087   Cg   257      6YA   0.063000
  5509  H3M   -2.288   -0.291   -3.924   Hc   257      6YA   0.000000
  5510  H2M   -0.865   -0.380   -4.980   Hc   257      6YA   0.000000
  5511  H1M   -1.522   -1.859   -4.247   Hc   257      6YA   0.000000
  5512  O2N    0.745   -1.090   -2.877    O   257      6YA  -0.579000
  5513   C3   -0.009   -0.775    0.370   Cg   257      6YA   0.165000
  5514   H3   -1.028   -1.091    0.604   H1   257      6YA   0.000000
  5515   O3    0.694   -1.896   -0.239   Oh   257      6YA  -0.630000
  5516  H3O    0.797   -1.742   -1.198   Ho   257      6YA   0.413000
  5517   C4    0.723   -0.404    1.680   Cg   257      6YA   0.322000
  5518   H4    1.786   -0.278    1.469   H1   257      6YA   0.000000
  5519   O4    0.555   -1.501    2.611   Oh   257      6YA  -0.733000
  5520  H4O    0.779   -2.304    2.121   Ho   257      6YA   0.449000
  5521   C5    0.162    0.881    2.327   Cg   257      6YA   0.246000
  5522   H5   -0.848    0.669    2.683   H1   257      6YA   0.000000
  5523   O5    0.050    1.992    1.325   Os   257      6YA  -0.568000
  5524   C6    0.989    1.348    3.545   Cg   257      6YA   0.328000
  5525  H62    0.959    0.593    4.330   H1   257      6YA   0.000000
  5526  H61    0.560    2.265    3.948   H1   257      6YA   0.000000
  5527   O6    2.367    1.597    3.191   Os   257      6YA  -0.461000
  5528   C1   -1.345    0.639    0.842   Cg   258      6YB   0.287000
  5529   H1   -0.909    0.775    1.833   H2   258      6YB   0.000000
  5530   O5   -1.291    1.920    0.128   Os   258      6YB  -0.433000
  5531   C5    0.082    2.442   -0.138   Cg   258      6YB   0.208000
  5532   H5    0.581    2.597    0.821   H1   258      6YB   0.000000
  5533   C4    0.863    1.386   -0.947   Cg   258      6YB   0.302000
  5534   H4    0.413    1.277   -1.936   H1   258      6YB   0.000000
  5535   O4    2.225    1.840   -1.102   Oh   258      6YB  -0.716000
  5536  H4O    2.712    1.121   -1.529   Ho   258      6YB   0.436000
  5537   C3    0.880    0.014   -0.233   Cg   258      6YB   0.180000
  5538   H3    1.415    0.116    0.714   H1   258      6YB   0.000000
  5539   O3    1.622   -0.930   -1.068   Oh   258      6YB  -0.681000
  5540  H3O    1.775   -1.756   -0.595   Ho   258      6YB   0.423000
  5541   C2   -0.566   -0.474    0.063   Cg   258      6YB   0.480000
  5542   H2   -1.073   -0.625   -0.892   H1   258      6YB   0.000000
  5543   N2   -0.549   -1.748    0.824   Ng   258      6YB  -0.722000
  5544  H2N   -0.365   -1.698    1.812    H   258      6YB   0.300000
  5545  C2N   -0.961   -2.911    0.311    C   258      6YB   0.648000
  5546  O2N   -1.273   -3.029   -0.869    O   258      6YB  -0.576000
  5547  CME   -0.979   -4.117    1.272   Cg   258      6YB   0.034000
  5548  H3M   -1.299   -3.809    2.269   Hc   258      6YB   0.000000
  5549  H2M   -1.669   -4.878    0.904   Hc   258      6YB   0.000000
  5550  H1M    0.022   -4.546    1.332   Hc   258      6YB   0.000000
  5551   C6   -0.014    3.794   -0.868   Cg   258      6YB   0.289000
  5552  H62   -0.508    3.669   -1.833   H1   258      6YB   0.000000
  5553  H61    0.981    4.206   -1.042   H1   258      6YB   0.000000
  5554   O6   -0.768    4.724   -0.071   Os   258      6YB  -0.459000
  5555   C2   -2.638    0.016   -1.157   Cy   259      7SA   0.237000
  5556   C1   -2.315    1.388   -1.993    C   259      7SA   0.789000
  5557  O1A   -2.044    2.409   -1.305   O2   259      7SA  -0.761000
  5558  O1B   -2.228    1.335   -3.243   O2   259      7SA  -0.761000
  5559   C3   -2.266   -1.278   -1.923   Cg   259      7SA   0.006000
  5560  H3E   -2.712   -1.278   -2.920   Hc   259      7SA   0.000000
  5561  H3A   -2.686   -2.151   -1.415   Hc   259      7SA   0.000000
  5562   C4   -0.739   -1.442   -2.019   Cg   259      7SA   0.332000
  5563   H4   -0.355   -0.689   -2.709   H1   259      7SA   0.000000
  5564   O4   -0.457   -2.751   -2.579   Oh   259      7SA  -0.762000
  5565  H4O    0.492   -2.861   -2.662   Ho   259      7SA   0.415000
  5566   C5   -0.017   -1.275   -0.646   Cg   259      7SA   0.308000
  5567   H5   -0.298   -2.113   -0.004   H1   259      7SA   0.000000
  5568   N5    1.458   -1.263   -0.808   Ng   259      7SA  -0.629000
  5569  H5N    1.836   -0.753   -1.589    H   259      7SA   0.280000
  5570  C5N    2.305   -1.781    0.089    C   259      7SA   0.632000
  5571  CME    3.805   -1.670   -0.245   Cg   259      7SA  -0.003000
  5572  H3M    3.966   -1.679   -1.325   Hc   259      7SA   0.000000
  5573  H2M    4.344   -2.512    0.194   Hc   259      7SA   0.000000
  5574  H1M    4.200   -0.741    0.169   Hc   259      7SA   0.000000
  5575  O5N    1.915   -2.301    1.131    O   259      7SA  -0.593000
  5576   C6   -0.507    0.034    0.010   Cg   259      7SA   0.220000
  5577   H6   -0.220    0.836   -0.670   H1   259      7SA   0.000000
  5578   O6   -1.944   -0.023    0.097   Oy   259      7SA  -0.403000
  5579   C7    0.078    0.447    1.376   Cg   259      7SA   0.111000
  5580   H7    1.135    0.677    1.231   H1   259      7SA   0.000000
  5581   C8   -0.611    1.720    1.949   Cg   259      7SA   0.492000
  5582   H8   -1.669    1.522    2.128   H1   259      7SA   0.000000
  5583   C9    0.043    2.200    3.273   Cg   259      7SA   0.178000
  5584  H9S    0.032    1.397    4.010   H1   259      7SA   0.000000
  5585  H9R    1.083    2.476    3.095   H1   259      7SA   0.000000
  5586   O9   -0.654    3.341    3.831   Oh   259      7SA  -0.689000
  5587  H9O   -0.762    3.983    3.119   Ho   259      7SA   0.408000
  5588   O8   -0.489    2.805    0.981   Oh   259      7SA  -0.739000
  5589  H8O   -1.086    2.646    0.215   Ho   259      7SA   0.412000
  5590   O7    0.006   -0.669    2.314   Os   259      7SA  -0.480000
  5591   C2   -0.051   -0.882    2.677   Cy   260      7SB   0.090000
  5592   C1    0.650   -0.648    4.122    C   260      7SB   0.979000
  5593  O1B   -0.136   -0.674    5.105   O2   260      7SB  -0.839000
  5594  O1A    1.892   -0.495    4.188   O2   260      7SB  -0.839000
  5595   O6    0.234    0.177    1.736   Oy   260      7SB  -0.344000
  5596   C6   -0.194    0.053    0.364   Cg   260      7SB  -0.008000
  5597   H6   -1.277   -0.091    0.373   H1   260      7SB   0.000000
  5598   C5    0.426   -1.216   -0.252   Cg   260      7SB   0.523000
  5599   H5    1.509   -1.090   -0.319   H1   260      7SB   0.000000
  5600   N5   -0.133   -1.440   -1.598   Ng   260      7SB  -0.669000
  5601  H5N   -1.049   -1.849   -1.651    H   260      7SB   0.261000
  5602  C5N    0.482   -1.060   -2.717    C   260      7SB   0.678000
  5603  O5N    1.534   -0.431   -2.693    O   260      7SB  -0.634000
  5604  CME   -0.196   -1.453   -4.044   Cg   260      7SB  -0.005000
  5605  H3M   -1.265   -1.626   -3.905   Hc   260      7SB   0.000000
  5606  H2M    0.266   -2.363   -4.429   Hc   260      7SB   0.000000
  5607  H1M   -0.065   -0.653   -4.775   Hc   260      7SB   0.000000
  5608   C4    0.139   -2.449    0.652   Cg   260      7SB   0.203000
  5609   H4   -0.934   -2.650    0.645   H1   260      7SB   0.000000
  5610   O4    0.819   -3.649    0.174   Oh   260      7SB  -0.714000
  5611  H4O    0.530   -3.865   -0.717   Ho   260      7SB   0.390000
  5612   C3    0.577   -2.176    2.101   Cg   260      7SB   0.133000
  5613  H3E    0.316   -3.030    2.732   Hc   260      7SB   0.000000
  5614  H3A    1.667   -2.112    2.133   Hc   260      7SB   0.000000
  5615   C7    0.051    1.387   -0.380   Cg   260      7SB   0.278000
  5616   H7   -0.514    1.350   -1.313   H1   260      7SB   0.000000
  5617   C8   -0.401    2.653    0.402   Cg   260      7SB   0.367000
  5618   H8    0.241    2.793    1.273   H1   260      7SB   0.000000
  5619   O8   -1.771    2.461    0.869   Oh   260      7SB  -0.704000
  5620  H8O   -1.750    1.753    1.527   Ho   260      7SB   0.392000
  5621   C9   -0.360    3.931   -0.469   Cg   260      7SB   0.201000
  5622  H9S    0.650    4.100   -0.843   H1   260      7SB   0.000000
  5623  H9R   -1.025    3.820   -1.327   H1   260      7SB   0.000000
  5624   O9   -0.768    5.089    0.292   Oh   260      7SB  -0.672000
  5625  H9O   -1.548    4.832    0.799   Ho   260      7SB   0.393000
  5626   O7    1.452    1.502   -0.731   Os   260      7SB  -0.460000
  5627   C2   -2.685    0.128   -1.207   Cy   261      8SA   0.237000
  5628   C1   -2.363    1.499   -2.043    C   261      8SA   0.789000
  5629  O1A   -2.092    2.521   -1.355   O2   261      8SA  -0.761000
  5630  O1B   -2.276    1.447   -3.294   O2   261      8SA  -0.761000
  5631   C3   -2.314   -1.167   -1.974   Cg   261      8SA   0.006000
  5632  H3E   -2.759   -1.167   -2.971   Hc   261      8SA   0.000000
  5633  H3A   -2.733   -2.040   -1.466   Hc   261      8SA   0.000000
  5634   C4   -0.786   -1.330   -2.070   Cg   261      8SA   0.332000
  5635   H4   -0.403   -0.577   -2.760   H1   261      8SA   0.000000
  5636   O4   -0.504   -2.639   -2.629   Oh   261      8SA  -0.762000
  5637  H4O    0.444   -2.750   -2.713   Ho   261      8SA   0.415000
  5638   C5   -0.064   -1.164   -0.697   Cg   261      8SA   0.308000
  5639   H5   -0.345   -2.001   -0.055   H1   261      8SA   0.000000
  5640   N5    1.411   -1.152   -0.858   Ng   261      8SA  -0.629000
  5641  H5N    1.789   -0.642   -1.640    H   261      8SA   0.280000
  5642  C5N    2.257   -1.669    0.038    C   261      8SA   0.632000
  5643  CME    3.758   -1.559   -0.295   Cg   261      8SA  -0.003000
  5644  H3M    3.918   -1.567   -1.375   Hc   261      8SA   0.000000
  5645  H2M    4.297   -2.400    0.143   Hc   261      8SA   0.000000
  5646  H1M    4.152   -0.630    0.118   Hc   261      8SA   0.000000
  5647  O5N    1.868   -2.189    1.080    O   261      8SA  -0.593000
  5648   C6   -0.554    0.145   -0.041   Cg   261      8SA   0.220000
  5649   H6   -0.267    0.948   -0.720   H1   261      8SA   0.000000
  5650   O6   -1.991    0.088    0.047   Oy   261      8SA  -0.403000
  5651   C7    0.031    0.559    1.326   Cg   261      8SA   0.111000
  5652   H7    1.088    0.789    1.181   H1   261      8SA   0.000000
  5653   O7   -0.041   -0.557    2.264   Oh   261      8SA  -0.721000
  5654  H7O    0.570   -1.267    1.985   Ho   261      8SA   0.435000
  5655   C8   -0.658    1.831    1.899   Cg   261      8SA   0.492000
  5656   H8   -1.716    1.634    2.078   H1   261      8SA   0.000000
  5657   C9   -0.005    2.312    3.222   Cg   261      8SA   0.178000
  5658  H9S   -0.015    1.509    3.960   H1   261      8SA   0.000000
  5659  H9R    1.036    2.588    3.045   H1   261      8SA   0.000000
  5660   O9   -0.701    3.453    3.781   Oh   261      8SA  -0.689000
  5661  H9O   -0.809    4.095    3.068   Ho   261      8SA   0.408000
  5662   O8   -0.537    2.917    0.930   Os   261      8SA  -0.521000
  5663   C2   -0.146   -0.857    2.758   Cy   262      8SB   0.090000
  5664   C1    0.555   -0.623    4.204    C   262      8SB   0.979000
  5665  O1B   -0.231   -0.649    5.187   O2   262      8SB  -0.839000
  5666  O1A    1.797   -0.470    4.269   O2   262      8SB  -0.839000
  5667   O6    0.139    0.203    1.818   Oy   262      8SB  -0.344000
  5668   C6   -0.289    0.078    0.446   Cg   262      8SB  -0.008000
  5669   H6   -1.372   -0.066    0.455   H1   262      8SB   0.000000
  5670   C5    0.331   -1.191   -0.170   Cg   262      8SB   0.523000
  5671   H5    1.414   -1.064   -0.237   H1   262      8SB   0.000000
  5672   N5   -0.228   -1.415   -1.516   Ng   262      8SB  -0.669000
  5673  H5N   -1.145   -1.824   -1.569    H   262      8SB   0.261000
  5674  C5N    0.386   -1.035   -2.635    C   262      8SB   0.678000
  5675  O5N    1.439   -0.406   -2.611    O   262      8SB  -0.634000
  5676  CME   -0.291   -1.428   -3.963   Cg   262      8SB  -0.005000
  5677  H3M   -1.360   -1.601   -3.823   Hc   262      8SB   0.000000
  5678  H2M    0.171   -2.338   -4.347   Hc   262      8SB   0.000000
  5679  H1M   -0.160   -0.628   -4.693   Hc   262      8SB   0.000000
  5680   C4    0.044   -2.424    0.734   Cg   262      8SB   0.203000
  5681   H4   -1.029   -2.624    0.727   H1   262      8SB   0.000000
  5682   O4    0.724   -3.624    0.256   Oh   262      8SB  -0.714000
  5683  H4O    0.435   -3.840   -0.635   Ho   262      8SB   0.390000
  5684   C3    0.482   -2.151    2.183   Cg   262      8SB   0.133000
  5685  H3E    0.221   -3.004    2.814   Hc   262      8SB   0.000000
  5686  H3A    1.572   -2.087    2.215   Hc   262      8SB   0.000000
  5687   C7   -0.044    1.412   -0.298   Cg   262      8SB   0.278000
  5688   H7   -0.609    1.375   -1.231   H1   262      8SB   0.000000
  5689   O7    1.357    1.527   -0.649   Oh   262      8SB  -0.656000
  5690  H7O    1.577    0.875   -1.338   Ho   262      8SB   0.390000
  5691   C8   -0.496    2.678    0.484   Cg   262      8SB   0.367000
  5692   H8    0.146    2.818    1.355   H1   262      8SB   0.000000
  5693   C9   -0.455    3.956   -0.387   Cg   262      8SB   0.201000
  5694  H9S    0.555    4.125   -0.761   H1   262      8SB   0.000000
  5695  H9R   -1.120    3.845   -1.245   H1   262      8SB   0.000000
  5696   O9   -0.863    5.114    0.374   Oh   262      8SB  -0.672000
  5697  H9O   -1.643    4.857    0.881   Ho   262      8SB   0.393000
  5698   O8   -1.866    2.486    0.951   Os   262      8SB  -0.506000
  5699   C2   -2.676    0.165   -1.127   Cy   263      9SA   0.237000
  5700   C1   -2.354    1.537   -1.963    C   263      9SA   0.789000
  5701  O1A   -2.083    2.558   -1.275   O2   263      9SA  -0.761000
  5702  O1B   -2.267    1.484   -3.213   O2   263      9SA  -0.761000
  5703   C3   -2.305   -1.129   -1.893   Cg   263      9SA   0.006000
  5704  H3E   -2.750   -1.130   -2.890   Hc   263      9SA   0.000000
  5705  H3A   -2.724   -2.003   -1.385   Hc   263      9SA   0.000000
  5706   C4   -0.777   -1.293   -1.989   Cg   263      9SA   0.332000
  5707   H4   -0.394   -0.540   -2.679   H1   263      9SA   0.000000
  5708   O4   -0.495   -2.602   -2.549   Oh   263      9SA  -0.762000
  5709  H4O    0.453   -2.712   -2.632   Ho   263      9SA   0.415000
  5710   C5   -0.055   -1.127   -0.616   Cg   263      9SA   0.308000
  5711   H5   -0.336   -1.964    0.026   H1   263      9SA   0.000000
  5712   N5    1.420   -1.114   -0.778   Ng   263      9SA  -0.629000
  5713  H5N    1.798   -0.604   -1.559    H   263      9SA   0.280000
  5714  C5N    2.266   -1.632    0.119    C   263      9SA   0.632000
  5715  CME    3.767   -1.522   -0.215   Cg   263      9SA  -0.003000
  5716  H3M    3.927   -1.530   -1.295   Hc   263      9SA   0.000000
  5717  H2M    4.306   -2.363    0.224   Hc   263      9SA   0.000000
  5718  H1M    4.161   -0.592    0.199   Hc   263      9SA   0.000000
  5719  O5N    1.877   -2.152    1.161    O   263      9SA  -0.593000
  5720   C6   -0.545    0.182    0.040   Cg   263      9SA   0.220000
  5721   H6   -0.258    0.985   -0.640   H1   263      9SA   0.000000
  5722   O6   -1.982    0.126    0.128   Oy   263      9SA  -0.403000
  5723   C7    0.040    0.596    1.406   Cg   263      9SA   0.111000
  5724   H7    1.097    0.826    1.261   H1   263      9SA   0.000000
  5725   O7   -0.032   -0.520    2.344   Oh   263      9SA  -0.721000
  5726  H7O    0.579   -1.230    2.066   Ho   263      9SA   0.435000
  5727   C8   -0.649    1.869    1.979   Cg   263      9SA   0.492000
  5728   H8   -1.707    1.671    2.158   H1   263      9SA   0.000000
  5729   O8   -0.528    2.954    1.011   Oh   263      9SA  -0.739000
  5730  H8O   -1.124    2.795    0.245   Ho   263      9SA   0.412000
  5731   C9    0.004    2.349    3.303   Cg   263      9SA   0.178000
  5732  H9S   -0.006    1.546    4.040   H1   263      9SA   0.000000
  5733  H9R    1.045    2.625    3.125   H1   263      9SA   0.000000
  5734   O9   -0.692    3.490    3.861   Os   263      9SA  -0.475000
  5735   C2   -0.140   -0.771    2.738   Cy   264      9SB   0.090000
  5736   C1    0.560   -0.538    4.183    C   264      9SB   0.979000
  5737  O1B   -0.225   -0.563    5.167   O2   264      9SB  -0.839000
  5738  O1A    1.803   -0.384    4.249   O2   264      9SB  -0.839000
  5739   O6    0.144    0.288    1.798   Oy   264      9SB  -0.344000
  5740   C6   -0.284    0.163    0.425   Cg   264      9SB  -0.008000
  5741   H6   -1.366    0.020    0.434   H1   264      9SB   0.000000
  5742   C5    0.337   -1.106   -0.190   Cg   264      9SB   0.523000
  5743   H5    1.420   -0.979   -0.258   H1   264      9SB   0.000000
  5744   N5   -0.223   -1.329   -1.536   Ng   264      9SB  -0.669000
  5745  H5N   -1.139   -1.739   -1.589    H   264      9SB   0.261000
  5746  C5N    0.392   -0.949   -2.655    C   264      9SB   0.678000
  5747  O5N    1.444   -0.321   -2.631    O   264      9SB  -0.634000
  5748  CME   -0.285   -1.342   -3.983   Cg   264      9SB  -0.005000
  5749  H3M   -1.354   -1.515   -3.843   Hc   264      9SB   0.000000
  5750  H2M    0.177   -2.253   -4.367   Hc   264      9SB   0.000000
  5751  H1M   -0.154   -0.542   -4.713   Hc   264      9SB   0.000000
  5752   C4    0.050   -2.338    0.714   Cg   264      9SB   0.203000
  5753   H4   -1.023   -2.539    0.707   H1   264      9SB   0.000000
  5754   O4    0.729   -3.539    0.236   Oh   264      9SB  -0.714000
  5755  H4O    0.441   -3.754   -0.655   Ho   264      9SB   0.390000
  5756   C3    0.487   -2.065    2.163   Cg   264      9SB   0.133000
  5757  H3E    0.227   -2.919    2.793   Hc   264      9SB   0.000000
  5758  H3A    1.578   -2.001    2.195   Hc   264      9SB   0.000000
  5759   C7   -0.038    1.497   -0.319   Cg   264      9SB   0.278000
  5760   H7   -0.604    1.461   -1.251   H1   264      9SB   0.000000
  5761   O7    1.363    1.613   -0.669   Oh   264      9SB  -0.656000
  5762  H7O    1.583    0.960   -1.358   Ho   264      9SB   0.390000
  5763   C8   -0.491    2.764    0.464   Cg   264      9SB   0.367000
  5764   H8    0.151    2.904    1.335   H1   264      9SB   0.000000
  5765   O8   -1.861    2.571    0.930   Oh   264      9SB  -0.704000
  5766  H8O   -1.839    1.863    1.589   Ho   264      9SB   0.392000
  5767   C9   -0.449    4.041   -0.408   Cg   264      9SB   0.201000
  5768  H9S    0.560    4.210   -0.782   H1   264      9SB   0.000000
  5769  H9R   -1.114    3.931   -1.266   H1   264      9SB   0.000000
  5770   O9   -0.858    5.200    0.353   Os   264      9SB  -0.473000
  5771   C1   -0.831    1.017    1.486   Cg   265      PEA   0.480000
  5772   H1   -1.765    1.080    2.045   H2   265      PEA   0.000000
  5773   C2   -0.015   -0.191    1.998   Cg   265      PEA   0.179000
  5774   H2    0.403    0.032    2.982   H1   265      PEA   0.000000
  5775   C3    1.101   -0.669    1.049   Cg   265      PEA   0.328000
  5776   H3    1.476   -1.642    1.370   H1   265      PEA   0.000000
  5777   C4    0.614   -0.752   -0.414   Cg   265      PEA   0.261000
  5778   H4   -0.106   -1.568   -0.487   H1   265      PEA   0.000000
  5779   C5   -0.065    0.543   -0.900   Cg   265      PEA   0.374000
  5780   H5    0.662    1.357   -0.889   H1   265      PEA   0.000000
  5781   C6   -0.678    0.438   -2.304   Cg   265      PEA   0.259000
  5782  H62    0.077    0.135   -3.029   H1   265      PEA   0.000000
  5783  H61   -1.485   -0.296   -2.319   H1   265      PEA   0.000000
  5784   O6   -1.193    1.721   -2.683   Os   265      PEA  -0.451000
  5785   O5   -1.161    0.865    0.049   Os   265      PEA  -0.587000
  5786   O4    1.726   -1.072   -1.269   Os   265      PEA  -0.500000
  5787   O3    2.179    0.283    1.157   Os   265      PEA  -0.488000
  5788   O2   -0.937   -1.281    2.157   Os   265      PEA  -0.437000
  5789   C1   -1.529   -0.741    1.045   Cg   266      PEB   0.488000
  5790   H1   -1.153   -0.638    2.063   H2   266      PEB   0.000000
  5791   O5   -1.394    0.547    0.352   Os   266      PEB  -0.532000
  5792   C5    0.019    1.004    0.138   Cg   266      PEB   0.257000
  5793   H5    0.477    1.173    1.115   H1   266      PEB   0.000000
  5794   C6    0.007    2.337   -0.635   Cg   266      PEB   0.278000
  5795  H62   -0.444    2.198   -1.618   H1   266      PEB   0.000000
  5796  H61    1.022    2.710   -0.772   H1   266      PEB   0.000000
  5797   O6   -0.754    3.319    0.092   Os   266      PEB  -0.463000
  5798   C4    0.816   -0.094   -0.611   Cg   266      PEB   0.320000
  5799   H4    0.408   -0.193   -1.618   H1   266      PEB   0.000000
  5800   O4    2.216    0.287   -0.739   Os   266      PEB  -0.498000
  5801   C3    0.700   -1.464    0.111   Cg   266      PEB   0.315000
  5802   H3    1.222   -2.223   -0.473   H1   266      PEB   0.000000
  5803   O3    1.318   -1.404    1.426   Os   266      PEB  -0.472000
  5804   C2   -0.773   -1.878    0.291   Cg   266      PEB   0.184000
  5805   H2   -0.830   -2.800    0.872   H1   266      PEB   0.000000
  5806   O2   -1.330   -2.139   -1.036   Os   266      PEB  -0.459000
  5807   C1   -0.805   -0.542    1.733   Cg   267      PGA   0.509000
  5808   H1   -1.714   -0.903    2.214   H2   267      PGA   0.000000
  5809   C2   -0.090   -1.720    1.011   Cg   267      PGA   0.246000
  5810   H2   -0.827   -2.216    0.378   H1   267      PGA   0.000000
  5811   C3    1.060   -1.216    0.114   Cg   267      PGA   0.286000
  5812   H3    1.869   -0.840    0.744   H1   267      PGA   0.000000
  5813   C4    0.598   -0.104   -0.856   Cg   267      PGA   0.254000
  5814   H4   -0.109   -0.521   -1.577   H1   267      PGA   0.000000
  5815   C5   -0.074    1.059   -0.095   Cg   267      PGA   0.283000
  5816   H5    0.680    1.535    0.536   H1   267      PGA   0.000000
  5817   C6   -0.662    2.127   -1.045   Cg   267      PGA   0.276000
  5818  H62    0.051    2.379   -1.830   H1   267      PGA   0.000000
  5819  H61   -1.566    1.746   -1.522   H1   267      PGA   0.000000
  5820   O6   -0.979    3.337   -0.323   Os   267      PGA  -0.458000
  5821   O5   -1.157    0.519    0.790   Os   267      PGA  -0.574000
  5822   O4    1.752    0.405   -1.574   Os   267      PGA  -0.468000
  5823   O3    1.560   -2.334   -0.667   Os   267      PGA  -0.466000
  5824   O2    0.414   -2.709    1.967   Os   267      PGA  -0.470000
  5825   C1   -1.465   -0.816    1.078   Cg   268      PGB   0.384000
  5826   H1   -1.070   -0.703    2.088   H2   268      PGB   0.000000
  5827   O5   -1.404    0.478    0.390   Os   268      PGB  -0.471000
  5828   C5   -0.028    1.014    0.159   Cg   268      PGB   0.225000
  5829   H5    0.455    1.147    1.129   H1   268      PGB   0.000000
  5830   C6   -0.127    2.388   -0.533   Cg   268      PGB   0.282000
  5831  H62   -0.595    2.283   -1.513   H1   268      PGB   0.000000
  5832  H61    0.865    2.819   -0.671   H1   268      PGB   0.000000
  5833   O6   -0.917    3.284    0.270   Os   268      PGB  -0.458000
  5834   C4    0.775   -0.009   -0.670   Cg   268      PGB   0.276000
  5835   H4    0.347   -0.079   -1.672   H1   268      PGB   0.000000
  5836   O4    2.145    0.448   -0.780   Os   268      PGB  -0.468000
  5837   C3    0.760   -1.407   -0.006   Cg   268      PGB   0.284000
  5838   H3    1.319   -1.364    0.931   H1   268      PGB   0.000000
  5839   O3    1.416   -2.355   -0.892   Os   268      PGB  -0.471000
  5840   C2   -0.676   -1.896    0.287   Cg   268      PGB   0.310000
  5841   H2   -1.190   -2.099   -0.655   H1   268      PGB   0.000000
  5842   O2   -0.609   -3.131    1.059   Os   268      PGB  -0.475000
  5843   C1   -0.933    0.968    1.441   Cg   269      PKA   0.473000
  5844   H1   -1.867    0.993    2.003   H2   269      PKA   0.000000
  5845   C2   -0.073   -0.209    1.949   Cg   269      PKA   0.281000
  5846   H2   -0.723   -1.086    1.950   H1   269      PKA   0.000000
  5847   C3    1.146   -0.561    1.068   Cg   269      PKA   0.354000
  5848   H3    1.597   -1.492    1.415   H1   269      PKA   0.000000
  5849   C4    0.745   -0.685   -0.414   Cg   269      PKA   0.196000
  5850   H4    1.640   -0.772   -1.032   H1   269      PKA   0.000000
  5851   C5   -0.110    0.506   -0.914   Cg   269      PKA   0.301000
  5852   H5    0.526    1.394   -0.893   H1   269      PKA   0.000000
  5853   C6   -0.654    0.358   -2.341   Cg   269      PKA   0.287000
  5854  H62    0.157    0.125   -3.032   H1   269      PKA   0.000000
  5855  H61   -1.394   -0.442   -2.394   H1   269      PKA   0.000000
  5856   O6   -1.262    1.594   -2.738   Os   269      PKA  -0.463000
  5857   O5   -1.252    0.735    0.014   Os   269      PKA  -0.540000
  5858   O4   -0.010   -1.904   -0.554   Os   269      PKA  -0.486000
  5859   O3    2.139    0.478    1.156   Os   269      PKA  -0.502000
  5860   O2    0.326    0.001    3.315   Os   269      PKA  -0.483000
  5861   C1   -1.472   -0.698    1.127   Cg   270      PKB   0.449000
  5862   H1   -1.078   -0.548    2.133   H2   270      PKB   0.000000
  5863   O5   -1.380    0.554    0.373   Os   270      PKB  -0.514000
  5864   C5    0.015    1.012    0.071   Cg   270      PKB   0.303000
  5865   H5    0.517    1.208    1.021   H1   270      PKB   0.000000
  5866   C6   -0.039    2.340   -0.711   Cg   270      PKB   0.259000
  5867  H62   -0.606    2.218   -1.634   H1   270      PKB   0.000000
  5868  H61    0.969    2.664   -0.969   H1   270      PKB   0.000000
  5869   O6   -0.663    3.363    0.090   Os   270      PKB  -0.448000
  5870   C4    0.814   -0.096   -0.669   Cg   270      PKB   0.217000
  5871   H4    1.856    0.216   -0.750   H1   270      PKB   0.000000
  5872   O4    0.305   -0.291   -2.018   Os   270      PKB  -0.469000
  5873   C3    0.737   -1.438    0.091   Cg   270      PKB   0.253000
  5874   H3    1.214   -2.219   -0.503   H1   270      PKB   0.000000
  5875   O3    1.486   -1.298    1.327   Os   270      PKB  -0.462000
  5876   C2   -0.723   -1.850    0.394   Cg   270      PKB   0.308000
  5877   H2   -1.228   -2.054   -0.551   H1   270      PKB   0.000000
  5878   O2   -0.726   -3.084    1.179   Os   270      PKB  -0.478000
  5879   C1   -0.991    0.939    1.414   Cg   271      PLA   0.465000
  5880   H1   -1.942    0.952    1.947   H2   271      PLA   0.000000
  5881   C2   -0.127   -0.226    1.951   Cg   271      PLA   0.339000
  5882   H2   -0.745   -1.126    1.964   H1   271      PLA   0.000000
  5883   C3    1.118   -0.485    1.081   Cg   271      PLA   0.253000
  5884   H3    1.795    0.366    1.161   H1   271      PLA   0.000000
  5885   C4    0.746   -0.678   -0.405   Cg   271      PLA   0.204000
  5886   H4    1.653   -0.779   -1.003   H1   271      PLA   0.000000
  5887   C5   -0.080    0.523   -0.914   Cg   271      PLA   0.216000
  5888   H5    0.553    1.410   -0.845   H1   271      PLA   0.000000
  5889   C6   -0.565    0.407   -2.366   Cg   271      PLA   0.308000
  5890  H62    0.274    0.193   -3.028   H1   271      PLA   0.000000
  5891  H61   -1.299   -0.393   -2.469   H1   271      PLA   0.000000
  5892   O6   -1.161    1.651   -2.757   Os   271      PLA  -0.460000
  5893   O5   -1.261    0.720   -0.026   Os   271      PLA  -0.527000
  5894   O4   -0.049   -1.875   -0.559   Os   271      PLA  -0.431000
  5895   O3    1.813   -1.656    1.549   Os   271      PLA  -0.462000
  5896   O2    0.268    0.057    3.307   Os   271      PLA  -0.487000
  5897   C1   -1.456   -0.790    1.104   Cg   272      PLB   0.374000
  5898   H1   -1.063   -0.681    2.116   H2   272      PLB   0.000000
  5899   O5   -1.379    0.511    0.426   Os   272      PLB  -0.402000
  5900   C5   -0.003    1.020    0.139   Cg   272      PLB   0.140000
  5901   H5    0.513    1.156    1.091   H1   272      PLB   0.000000
  5902   C6   -0.089    2.392   -0.554   Cg   272      PLB   0.319000
  5903  H62   -0.681    2.329   -1.468   H1   272      PLB   0.000000
  5904  H61    0.908    2.750   -0.811   H1   272      PLB   0.000000
  5905   O6   -0.705    3.331    0.342   Os   272      PLB  -0.468000
  5906   C4    0.790   -0.024   -0.679   Cg   272      PLB   0.203000
  5907   H4    1.822    0.311   -0.789   H1   272      PLB   0.000000
  5908   O4    0.207   -0.153   -1.999   Os   272      PLB  -0.421000
  5909   C3    0.772   -1.396    0.034   Cg   272      PLB   0.259000
  5910   H3    1.308   -1.294    0.980   H1   272      PLB   0.000000
  5911   O3    1.491   -2.365   -0.780   Os   272      PLB  -0.455000
  5912   C2   -0.666   -1.885    0.328   Cg   272      PLB   0.357000
  5913   H2   -1.177   -2.111   -0.609   H1   272      PLB   0.000000
  5914   O2   -0.591   -3.103    1.129   Os   272      PLB  -0.488000
  5915   C1   -0.937   -0.519    1.691   Cg   273      PMA   0.433000
  5916   H1   -1.902   -0.835    2.086   H2   273      PMA   0.000000
  5917   C2   -0.231   -1.725    1.009   Cg   273      PMA   0.245000
  5918   H2    0.073   -2.444    1.771   H1   273      PMA   0.000000
  5919   C3    1.016   -1.254    0.228   Cg   273      PMA   0.252000
  5920   H3    1.743   -0.859    0.940   H1   273      PMA   0.000000
  5921   C4    0.664   -0.141   -0.790   Cg   273      PMA   0.326000
  5922   H4   -0.008   -0.536   -1.554   H1   273      PMA   0.000000
  5923   C5    0.002    1.060   -0.076   Cg   273      PMA   0.276000
  5924   H5    0.741    1.512    0.588   H1   273      PMA   0.000000
  5925   C6   -0.485    2.134   -1.073   Cg   273      PMA   0.266000
  5926  H62    0.288    2.352   -1.810   H1   273      PMA   0.000000
  5927  H61   -1.367    1.776   -1.608   H1   273      PMA   0.000000
  5928   O6   -0.810    3.363   -0.390   Os   273      PMA  -0.460000
  5929   O5   -1.151    0.599    0.760   Os   273      PMA  -0.507000
  5930   O4    1.887    0.310   -1.429   Os   273      PMA  -0.489000
  5931   O3    1.633   -2.395   -0.444   Os   273      PMA  -0.459000
  5932   O2   -1.156   -2.397    0.102   Os   273      PMA  -0.465000
  5933   C1   -1.458   -0.771    1.146   Cg   274      PMB   0.314000
  5934   H1   -0.977   -0.729    2.124   H2   274      PMB   0.000000
  5935   O5   -1.350    0.549    0.509   Os   274      PMB  -0.393000
  5936   C5    0.039    1.008    0.187   Cg   274      PMB   0.206000
  5937   H5    0.563    1.175    1.130   H1   274      PMB   0.000000
  5938   C6   -0.040    2.343   -0.574   Cg   274      PMB   0.273000
  5939  H62   -0.563    2.208   -1.522   H1   274      PMB   0.000000
  5940  H61    0.959    2.724   -0.785   H1   274      PMB   0.000000
  5941   O6   -0.750    3.314    0.216   Os   274      PMB  -0.455000
  5942   C4    0.803   -0.072   -0.621   Cg   274      PMB   0.349000
  5943   H4    0.393   -0.137   -1.631   H1   274      PMB   0.000000
  5944   O4    2.197    0.324   -0.711   Os   274      PMB  -0.497000
  5945   C3    0.697   -1.452    0.084   Cg   274      PMB   0.263000
  5946   H3    1.147   -1.371    1.076   H1   274      PMB   0.000000
  5947   O3    1.434   -2.487   -0.630   Os   274      PMB  -0.456000
  5948   C2   -0.784   -1.859    0.265   Cg   274      PMB   0.241000
  5949   H2   -0.848   -2.829    0.761   H1   274      PMB   0.000000
  5950   O2   -1.461   -1.938   -1.025   Os   274      PMB  -0.427000
  5951   C1   -0.875    1.051    1.435   Cg   275      PNA   0.478000
  5952   H1   -1.822    1.145    1.968   H2   275      PNA   0.000000
  5953   C2   -0.139   -0.210    1.940   Cg   275      PNA   0.228000
  5954   H2   -0.855   -1.031    1.888   H1   275      PNA   0.000000
  5955   C3    1.083   -0.630    1.100   Cg   275      PNA   0.330000
  5956   H3    1.466   -1.589    1.453   H1   275      PNA   0.000000
  5957   C4    0.649   -0.746   -0.377   Cg   275      PNA   0.167000
  5958   H4   -0.048   -1.582   -0.459   H1   275      PNA   0.000000
  5959   C5   -0.045    0.523   -0.920   Cg   275      PNA   0.404000
  5960   H5    0.673    1.346   -0.929   H1   275      PNA   0.000000
  5961   C6   -0.629    0.352   -2.330   Cg   275      PNA   0.280000
  5962  H62    0.145    0.034   -3.028   H1   275      PNA   0.000000
  5963  H61   -1.423   -0.396   -2.329   H1   275      PNA   0.000000
  5964   O6   -1.159    1.610   -2.771   Os   275      PNA  -0.461000
  5965   O5   -1.165    0.880   -0.007   Os   275      PNA  -0.611000
  5966   O4    1.799   -1.054   -1.185   Os   275      PNA  -0.483000
  5967   O3    2.124    0.363    1.227   Os   275      PNA  -0.467000
  5968   O2    0.222   -0.067    3.325   Os   275      PNA  -0.447000
  5969   C1   -1.466   -0.735    1.133   Cg   276      PNB   0.422000
  5970   H1   -1.065   -0.613    2.141   H2   276      PNB   0.000000
  5971   O5   -1.373    0.544    0.414   Os   276      PNB  -0.507000
  5972   C5    0.015    1.011    0.089   Cg   276      PNB   0.198000
  5973   H5    0.553    1.173    1.024   H1   276      PNB   0.000000
  5974   C6   -0.057    2.353   -0.665   Cg   276      PNB   0.313000
  5975  H62   -0.586    2.229   -1.610   H1   276      PNB   0.000000
  5976  H61    0.944    2.731   -0.876   H1   276      PNB   0.000000
  5977   O6   -0.757    3.313    0.145   Os   276      PNB  -0.465000
  5978   C4    0.728   -0.094   -0.725   Cg   276      PNB   0.286000
  5979   H4    0.199   -0.229   -1.670   H1   276      PNB   0.000000
  5980   O4    2.088    0.293   -1.031   Os   276      PNB  -0.471000
  5981   C3    0.731   -1.440    0.037   Cg   276      PNB   0.234000
  5982   H3    1.205   -2.209   -0.576   H1   276      PNB   0.000000
  5983   O3    1.489   -1.302    1.275   Os   276      PNB  -0.420000
  5984   C2   -0.718   -1.863    0.361   Cg   276      PNB   0.301000
  5985   H2   -1.238   -2.052   -0.582   H1   276      PNB   0.000000
  5986   O2   -0.695   -3.110    1.117   Os   276      PNB  -0.473000
  5987   C1   -0.978    0.943    1.436   Cg   277      PTA   0.456000
  5988   H1   -1.941    0.955    1.949   H2   277      PTA   0.000000
  5989   C2   -0.116   -0.205    1.999   Cg   277      PTA   0.245000
  5990   H2    0.236    0.046    3.000   H1   277      PTA   0.000000
  5991   C3    1.089   -0.525    1.087   Cg   277      PTA   0.124000
  5992   H3    1.773    0.321    1.162   H1   277      PTA   0.000000
  5993   C4    0.747   -0.687   -0.409   Cg   277      PTA   0.434000
  5994   H4    1.667   -0.781   -0.988   H1   277      PTA   0.000000
  5995   C5   -0.048    0.543   -0.899   Cg   277      PTA   0.157000
  5996   H5    0.607    1.412   -0.810   H1   277      PTA   0.000000
  5997   C6   -0.527    0.465   -2.355   Cg   277      PTA   0.304000
  5998  H62    0.310    0.238   -3.016   H1   277      PTA   0.000000
  5999  H61   -1.283   -0.313   -2.475   H1   277      PTA   0.000000
  6000   O6   -1.085    1.732   -2.728   Os   277      PTA  -0.462000
  6001   O5   -1.227    0.757   -0.016   Os   277      PTA  -0.480000
  6002   O4   -0.048   -1.874   -0.614   Os   277      PTA  -0.508000
  6003   O3    1.806   -1.675    1.572   Os   277      PTA  -0.439000
  6004   O2   -0.982   -1.351    2.105   Os   277      PTA  -0.413000
  6005   C1   -1.604    0.117    1.162   Cg   278      PTB   0.306000
  6006   H1   -1.359    1.067    1.640   H2   278      PTB   0.000000
  6007   O5   -1.433    0.277   -0.300   Os   278      PTB  -0.354000
  6008   C5   -0.073    0.700   -0.728   Cg   278      PTB   0.031000
  6009   H5    0.166    1.638   -0.222   H1   278      PTB   0.000000
  6010   C6   -0.090    0.975   -2.238   Cg   278      PTB   0.349000
  6011  H62   -0.439    0.100   -2.788   H1   278      PTB   0.000000
  6012  H61    0.911    1.227   -2.587   H1   278      PTB   0.000000
  6013   O6   -0.967    2.080   -2.497   Os   278      PTB  -0.454000
  6014   C4    0.963   -0.352   -0.263   Cg   278      PTB   0.314000
  6015   H4    1.970    0.021   -0.453   H1   278      PTB   0.000000
  6016   O4    0.773   -1.563   -1.024   Os   278      PTB  -0.407000
  6017   C3    0.793   -0.639    1.248   Cg   278      PTB   0.174000
  6018   H3    1.077    0.273    1.775   H1   278      PTB   0.000000
  6019   O3    1.708   -1.663    1.677   Os   278      PTB  -0.447000
  6020   C2   -0.650   -0.977    1.687   Cg   278      PTB   0.340000
  6021   H2   -0.705   -1.029    2.775   H1   278      PTB   0.000000
  6022   O2   -1.042   -2.253    1.136   Os   278      PTB  -0.434000
  6023   C1   -0.745    1.071    1.340   Cg   279      QEA   0.480000
  6024   H1   -1.679    1.134    1.900   H2   279      QEA   0.000000
  6025   C2    0.071   -0.137    1.852   Cg   279      QEA   0.179000
  6026   H2    0.489    0.085    2.837   H1   279      QEA   0.000000
  6027   O2   -0.851   -1.227    2.012   Oh   279      QEA  -0.690000
  6028  H2O   -1.548   -0.970    2.620   Ho   279      QEA   0.447000
  6029   C3    1.187   -0.615    0.903   Cg   279      QEA   0.328000
  6030   H3    1.562   -1.588    1.225   H1   279      QEA   0.000000
  6031   C4    0.700   -0.698   -0.559   Cg   279      QEA   0.261000
  6032   H4   -0.020   -1.514   -0.632   H1   279      QEA   0.000000
  6033   C5    0.021    0.597   -1.046   Cg   279      QEA   0.374000
  6034   H5    0.748    1.411   -1.034   H1   279      QEA   0.000000
  6035   C6   -0.592    0.492   -2.449   Cg   279      QEA   0.259000
  6036  H62    0.163    0.189   -3.174   H1   279      QEA   0.000000
  6037  H61   -1.399   -0.242   -2.464   H1   279      QEA   0.000000
  6038   O6   -1.107    1.775   -2.829   Os   279      QEA  -0.451000
  6039   O5   -1.075    0.919   -0.097   Os   279      QEA  -0.587000
  6040   O4    1.812   -1.018   -1.414   Os   279      QEA  -0.500000
  6041   O3    2.265    0.337    1.011   Os   279      QEA  -0.488000
  6042   C1   -1.409   -0.618    1.094   Cg   280      QEB   0.488000
  6043   H1   -1.033   -0.516    2.112   H2   280      QEB   0.000000
  6044   O5   -1.275    0.669    0.401   Os   280      QEB  -0.532000
  6045   C5    0.139    1.126    0.187   Cg   280      QEB   0.257000
  6046   H5    0.596    1.296    1.164   H1   280      QEB   0.000000
  6047   C6    0.127    2.460   -0.585   Cg   280      QEB   0.278000
  6048  H62   -0.324    2.320   -1.569   H1   280      QEB   0.000000
  6049  H61    1.142    2.833   -0.723   H1   280      QEB   0.000000
  6050   O6   -0.634    3.441    0.142   Os   280      QEB  -0.463000
  6051   C4    0.935    0.029   -0.562   Cg   280      QEB   0.320000
  6052   H4    0.527   -0.071   -1.569   H1   280      QEB   0.000000
  6053   O4    2.336    0.410   -0.690   Os   280      QEB  -0.498000
  6054   C3    0.819   -1.342    0.161   Cg   280      QEB   0.315000
  6055   H3    1.342   -2.101   -0.423   H1   280      QEB   0.000000
  6056   C2   -0.653   -1.756    0.340   Cg   280      QEB   0.184000
  6057   H2   -0.711   -2.677    0.921   H1   280      QEB   0.000000
  6058   O2   -1.210   -2.017   -0.987   Oh   280      QEB  -0.697000
  6059  H2O   -2.153   -2.204   -0.889   Ho   280      QEB   0.432000
  6060   O3    1.438   -1.281    1.475   Os   280      QEB  -0.472000
  6061   C1   -0.847   -0.424    1.589   Cg   281      QGA   0.509000
  6062   H1   -1.756   -0.785    2.070   H2   281      QGA   0.000000
  6063   C2   -0.131   -1.602    0.867   Cg   281      QGA   0.246000
  6064   H2   -0.869   -2.098    0.234   H1   281      QGA   0.000000
  6065   O2    0.373   -2.591    1.823   Oh   281      QGA  -0.713000
  6066  H2O    0.745   -2.132    2.589   Ho   281      QGA   0.437000
  6067   C3    1.019   -1.098   -0.029   Cg   281      QGA   0.286000
  6068   H3    1.828   -0.722    0.600   H1   281      QGA   0.000000
  6069   C4    0.556    0.015   -1.000   Cg   281      QGA   0.254000
  6070   H4   -0.150   -0.402   -1.720   H1   281      QGA   0.000000
  6071   C5   -0.115    1.177   -0.239   Cg   281      QGA   0.283000
  6072   H5    0.638    1.653    0.392   H1   281      QGA   0.000000
  6073   C6   -0.703    2.245   -1.189   Cg   281      QGA   0.276000
  6074  H62    0.010    2.497   -1.974   H1   281      QGA   0.000000
  6075  H61   -1.608    1.864   -1.665   H1   281      QGA   0.000000
  6076   O6   -1.020    3.455   -0.467   Os   281      QGA  -0.458000
  6077   O5   -1.199    0.637    0.646   Os   281      QGA  -0.574000
  6078   O4    1.710    0.524   -1.718   Os   281      QGA  -0.468000
  6079   O3    1.519   -2.215   -0.810   Os   281      QGA  -0.466000
  6080   C1   -1.385   -0.637    1.010   Cg   282      QGB   0.384000
  6081   H1   -0.991   -0.525    2.020   H2   282      QGB   0.000000
  6082   O5   -1.325    0.656    0.322   Os   282      QGB  -0.471000
  6083   C5    0.051    1.193    0.091   Cg   282      QGB   0.225000
  6084   H5    0.535    1.325    1.061   H1   282      QGB   0.000000
  6085   C6   -0.047    2.566   -0.601   Cg   282      QGB   0.282000
  6086  H62   -0.516    2.461   -1.581   H1   282      QGB   0.000000
  6087  H61    0.944    2.998   -0.739   H1   282      QGB   0.000000
  6088   O6   -0.838    3.462    0.202   Os   282      QGB  -0.458000
  6089   C4    0.855    0.169   -0.738   Cg   282      QGB   0.276000
  6090   H4    0.426    0.099   -1.740   H1   282      QGB   0.000000
  6091   O4    2.224    0.626   -0.848   Os   282      QGB  -0.468000
  6092   C3    0.839   -1.229   -0.074   Cg   282      QGB   0.284000
  6093   H3    1.398   -1.186    0.863   H1   282      QGB   0.000000
  6094   C2   -0.597   -1.718    0.219   Cg   282      QGB   0.310000
  6095   H2   -1.110   -1.921   -0.723   H1   282      QGB   0.000000
  6096   O2   -0.529   -2.953    0.991   Oh   282      QGB  -0.718000
  6097  H2O   -1.431   -3.209    1.226   Ho   282      QGB   0.437000
  6098   O3    1.496   -2.177   -0.960   Os   282      QGB  -0.471000
  6099   C1   -0.980    0.927    1.264   Cg   283      QKA   0.473000
  6100   H1   -1.913    0.952    1.826   H2   283      QKA   0.000000
  6101   C2   -0.120   -0.250    1.772   Cg   283      QKA   0.281000
  6102   H2   -0.769   -1.127    1.772   H1   283      QKA   0.000000
  6103   O2    0.280   -0.040    3.138   Oh   283      QKA  -0.716000
  6104  H2O    0.840    0.737    3.191   Ho   283      QKA   0.427000
  6105   C3    1.099   -0.602    0.891   Cg   283      QKA   0.354000
  6106   H3    1.550   -1.533    1.238   H1   283      QKA   0.000000
  6107   C4    0.698   -0.726   -0.592   Cg   283      QKA   0.196000
  6108   H4    1.593   -0.813   -1.209   H1   283      QKA   0.000000
  6109   C5   -0.156    0.465   -1.091   Cg   283      QKA   0.301000
  6110   H5    0.480    1.353   -1.070   H1   283      QKA   0.000000
  6111   C6   -0.700    0.317   -2.518   Cg   283      QKA   0.287000
  6112  H62    0.110    0.084   -3.209   H1   283      QKA   0.000000
  6113  H61   -1.441   -0.483   -2.571   H1   283      QKA   0.000000
  6114   O6   -1.309    1.553   -2.915   Os   283      QKA  -0.463000
  6115   O5   -1.298    0.694   -0.163   Os   283      QKA  -0.540000
  6116   O4   -0.056   -1.945   -0.731   Os   283      QKA  -0.486000
  6117   O3    2.092    0.437    0.978   Os   283      QKA  -0.502000
  6118   C1   -1.385   -0.524    1.055   Cg   284      QKB   0.449000
  6119   H1   -0.991   -0.373    2.061   H2   284      QKB   0.000000
  6120   O5   -1.294    0.729    0.300   Os   284      QKB  -0.514000
  6121   C5    0.102    1.187   -0.002   Cg   284      QKB   0.303000
  6122   H5    0.603    1.382    0.948   H1   284      QKB   0.000000
  6123   C6    0.048    2.515   -0.783   Cg   284      QKB   0.259000
  6124  H62   -0.519    2.392   -1.706   H1   284      QKB   0.000000
  6125  H61    1.056    2.839   -1.041   H1   284      QKB   0.000000
  6126   O6   -0.577    3.537    0.017   Os   284      QKB  -0.448000
  6127   C4    0.900    0.079   -0.741   Cg   284      QKB   0.217000
  6128   H4    1.943    0.390   -0.822   H1   284      QKB   0.000000
  6129   O4    0.392   -0.117   -2.090   Os   284      QKB  -0.469000
  6130   C3    0.824   -1.264    0.019   Cg   284      QKB   0.253000
  6131   H3    1.300   -2.045   -0.575   H1   284      QKB   0.000000
  6132   C2   -0.637   -1.676    0.322   Cg   284      QKB   0.308000
  6133   H2   -1.142   -1.880   -0.623   H1   284      QKB   0.000000
  6134   O2   -0.639   -2.909    1.106   Oh   284      QKB  -0.710000
  6135  H2O   -1.556   -3.139    1.301   Ho   284      QKB   0.426000
  6136   O3    1.573   -1.123    1.255   Os   284      QKB  -0.462000
  6137   C1   -1.033    0.894    1.239   Cg   285      QLA   0.465000
  6138   H1   -1.984    0.906    1.772   H2   285      QLA   0.000000
  6139   C2   -0.169   -0.271    1.776   Cg   285      QLA   0.339000
  6140   H2   -0.787   -1.171    1.789   H1   285      QLA   0.000000
  6141   O2    0.227    0.012    3.132   Oh   285      QLA  -0.724000
  6142  H2O    0.755    0.813    3.149   Ho   285      QLA   0.431000
  6143   C3    1.076   -0.530    0.906   Cg   285      QLA   0.253000
  6144   H3    1.754    0.321    0.986   H1   285      QLA   0.000000
  6145   C4    0.704   -0.723   -0.580   Cg   285      QLA   0.204000
  6146   H4    1.611   -0.824   -1.178   H1   285      QLA   0.000000
  6147   C5   -0.122    0.478   -1.089   Cg   285      QLA   0.216000
  6148   H5    0.511    1.365   -1.020   H1   285      QLA   0.000000
  6149   C6   -0.607    0.362   -2.541   Cg   285      QLA   0.308000
  6150  H62    0.232    0.148   -3.203   H1   285      QLA   0.000000
  6151  H61   -1.341   -0.439   -2.644   H1   285      QLA   0.000000
  6152   O6   -1.203    1.606   -2.932   Os   285      QLA  -0.460000
  6153   O5   -1.303    0.675   -0.201   Os   285      QLA  -0.527000
  6154   O4   -0.091   -1.920   -0.734   Os   285      QLA  -0.431000
  6155   O3    1.771   -1.701    1.374   Os   285      QLA  -0.462000
  6156   C1   -1.377   -0.613    1.033   Cg   286      QLB   0.374000
  6157   H1   -0.984   -0.504    2.044   H2   286      QLB   0.000000
  6158   O5   -1.300    0.688    0.355   Os   286      QLB  -0.402000
  6159   C5    0.076    1.197    0.067   Cg   286      QLB   0.140000
  6160   H5    0.591    1.333    1.020   H1   286      QLB   0.000000
  6161   C6   -0.011    2.569   -0.626   Cg   286      QLB   0.319000
  6162  H62   -0.603    2.505   -1.540   H1   286      QLB   0.000000
  6163  H61    0.986    2.927   -0.883   H1   286      QLB   0.000000
  6164   O6   -0.627    3.508    0.270   Os   286      QLB  -0.468000
  6165   C4    0.868    0.153   -0.750   Cg   286      QLB   0.203000
  6166   H4    1.901    0.488   -0.860   H1   286      QLB   0.000000
  6167   O4    0.285    0.023   -2.071   Os   286      QLB  -0.421000
  6168   C3    0.851   -1.219   -0.038   Cg   286      QLB   0.259000
  6169   H3    1.386   -1.117    0.908   H1   286      QLB   0.000000
  6170   C2   -0.587   -1.708    0.257   Cg   286      QLB   0.357000
  6171   H2   -1.099   -1.934   -0.681   H1   286      QLB   0.000000
  6172   O2   -0.512   -2.926    1.057   Oh   286      QLB  -0.726000
  6173  H2O   -1.414   -3.180    1.290   Ho   286      QLB   0.432000
  6174   O3    1.570   -2.188   -0.852   Os   286      QLB  -0.455000
  6175   C1   -0.902   -0.361    1.715   Cg   287      QMA   0.433000
  6176   H1   -1.867   -0.677    2.110   H2   287      QMA   0.000000
  6177   C2   -0.197   -1.567    1.033   Cg   287      QMA   0.245000
  6178   H2    0.108   -2.286    1.795   H1   287      QMA   0.000000
  6179   O2   -1.122   -2.239    0.126   Oh   287      QMA  -0.717000
  6180  H2O   -0.620   -2.848   -0.430   Ho   287      QMA   0.446000
  6181   C3    1.050   -1.096    0.251   Cg   287      QMA   0.252000
  6182   H3    1.777   -0.701    0.964   H1   287      QMA   0.000000
  6183   C4    0.698    0.017   -0.767   Cg   287      QMA   0.326000
  6184   H4    0.027   -0.377   -1.530   H1   287      QMA   0.000000
  6185   C5    0.036    1.218   -0.053   Cg   287      QMA   0.276000
  6186   H5    0.776    1.670    0.612   H1   287      QMA   0.000000
  6187   C6   -0.451    2.292   -1.049   Cg   287      QMA   0.266000
  6188  H62    0.323    2.510   -1.786   H1   287      QMA   0.000000
  6189  H61   -1.332    1.934   -1.584   H1   287      QMA   0.000000
  6190   O6   -0.776    3.522   -0.366   Os   287      QMA  -0.460000
  6191   O5   -1.117    0.757    0.784   Os   287      QMA  -0.507000
  6192   O4    1.922    0.469   -1.405   Os   287      QMA  -0.489000
  6193   O3    1.667   -2.237   -0.420   Os   287      QMA  -0.459000
  6194   C1   -1.332   -0.661    1.191   Cg   288      QMB   0.314000
  6195   H1   -0.851   -0.618    2.169   H2   288      QMB   0.000000
  6196   O5   -1.224    0.660    0.554   Os   288      QMB  -0.393000
  6197   C5    0.165    1.118    0.231   Cg   288      QMB   0.206000
  6198   H5    0.689    1.285    1.175   H1   288      QMB   0.000000
  6199   C6    0.086    2.454   -0.529   Cg   288      QMB   0.273000
  6200  H62   -0.437    2.318   -1.477   H1   288      QMB   0.000000
  6201  H61    1.085    2.834   -0.740   H1   288      QMB   0.000000
  6202   O6   -0.624    3.425    0.261   Os   288      QMB  -0.455000
  6203   C4    0.929    0.038   -0.576   Cg   288      QMB   0.349000
  6204   H4    0.519   -0.026   -1.586   H1   288      QMB   0.000000
  6205   O4    2.323    0.435   -0.666   Os   288      QMB  -0.497000
  6206   C3    0.823   -1.342    0.129   Cg   288      QMB   0.263000
  6207   H3    1.273   -1.261    1.121   H1   288      QMB   0.000000
  6208   C2   -0.658   -1.749    0.310   Cg   288      QMB   0.241000
  6209   H2   -0.722   -2.719    0.806   H1   288      QMB   0.000000
  6210   O2   -1.335   -1.828   -0.980   Oh   288      QMB  -0.664000
  6211  H2O   -2.270   -1.987   -0.809   Ho   288      QMB   0.431000
  6212   O3    1.560   -2.377   -0.585   Os   288      QMB  -0.456000
  6213   C1   -0.920    1.017    1.255   Cg   289      QNA   0.478000
  6214   H1   -1.867    1.111    1.788   H2   289      QNA   0.000000
  6215   C2   -0.184   -0.244    1.760   Cg   289      QNA   0.228000
  6216   H2   -0.900   -1.065    1.708   H1   289      QNA   0.000000
  6217   O2    0.177   -0.101    3.146   Oh   289      QNA  -0.668000
  6218  H2O    0.812    0.613    3.237   Ho   289      QNA   0.415000
  6219   C3    1.038   -0.664    0.920   Cg   289      QNA   0.330000
  6220   H3    1.421   -1.623    1.273   H1   289      QNA   0.000000
  6221   C4    0.604   -0.780   -0.556   Cg   289      QNA   0.167000
  6222   H4   -0.093   -1.616   -0.639   H1   289      QNA   0.000000
  6223   C5   -0.090    0.489   -1.100   Cg   289      QNA   0.404000
  6224   H5    0.628    1.311   -1.109   H1   289      QNA   0.000000
  6225   C6   -0.674    0.318   -2.509   Cg   289      QNA   0.280000
  6226  H62    0.100   -0.000   -3.208   H1   289      QNA   0.000000
  6227  H61   -1.468   -0.430   -2.509   H1   289      QNA   0.000000
  6228   O6   -1.204    1.576   -2.951   Os   289      QNA  -0.461000
  6229   O5   -1.210    0.846   -0.187   Os   289      QNA  -0.611000
  6230   O4    1.753   -1.088   -1.365   Os   289      QNA  -0.483000
  6231   O3    2.079    0.329    1.047   Os   289      QNA  -0.467000
  6232   C1   -1.382   -0.558    1.064   Cg   290      QNB   0.422000
  6233   H1   -0.980   -0.436    2.073   H2   290      QNB   0.000000
  6234   O5   -1.288    0.721    0.346   Os   290      QNB  -0.507000
  6235   C5    0.100    1.189    0.020   Cg   290      QNB   0.198000
  6236   H5    0.638    1.351    0.956   H1   290      QNB   0.000000
  6237   C6    0.028    2.531   -0.733   Cg   290      QNB   0.313000
  6238  H62   -0.502    2.407   -1.678   H1   290      QNB   0.000000
  6239  H61    1.029    2.908   -0.944   H1   290      QNB   0.000000
  6240   O6   -0.672    3.491    0.077   Os   290      QNB  -0.465000
  6241   C4    0.813    0.083   -0.793   Cg   290      QNB   0.286000
  6242   H4    0.284   -0.051   -1.738   H1   290      QNB   0.000000
  6243   O4    2.173    0.471   -1.099   Os   290      QNB  -0.471000
  6244   C3    0.816   -1.262   -0.031   Cg   290      QNB   0.234000
  6245   H3    1.290   -2.031   -0.644   H1   290      QNB   0.000000
  6246   C2   -0.633   -1.686    0.293   Cg   290      QNB   0.301000
  6247   H2   -1.153   -1.875   -0.650   H1   290      QNB   0.000000
  6248   O2   -0.610   -2.932    1.049   Oh   290      QNB  -0.703000
  6249  H2O   -1.522   -3.198    1.226   Ho   290      QNB   0.424000
  6250   O3    1.573   -1.124    1.207   Os   290      QNB  -0.420000
  6251   C1   -0.888    1.003    1.295   Cg   291      QTA   0.456000
  6252   H1   -1.850    1.015    1.808   H2   291      QTA   0.000000
  6253   C2   -0.025   -0.145    1.858   Cg   291      QTA   0.245000
  6254   H2    0.327    0.106    2.859   H1   291      QTA   0.000000
  6255   O2   -0.891   -1.291    1.964   Oh   291      QTA  -0.655000
  6256  H2O   -1.634   -1.079    2.534   Ho   291      QTA   0.436000
  6257   C3    1.180   -0.465    0.946   Cg   291      QTA   0.124000
  6258   H3    1.864    0.381    1.022   H1   291      QTA   0.000000
  6259   C4    0.838   -0.627   -0.550   Cg   291      QTA   0.434000
  6260   H4    1.758   -0.721   -1.128   H1   291      QTA   0.000000
  6261   C5    0.043    0.602   -1.040   Cg   291      QTA   0.157000
  6262   H5    0.697    1.472   -0.951   H1   291      QTA   0.000000
  6263   C6   -0.436    0.524   -2.496   Cg   291      QTA   0.304000
  6264  H62    0.401    0.298   -3.157   H1   291      QTA   0.000000
  6265  H61   -1.192   -0.253   -2.616   H1   291      QTA   0.000000
  6266   O6   -0.995    1.792   -2.869   Os   291      QTA  -0.462000
  6267   O5   -1.136    0.817   -0.157   Os   291      QTA  -0.480000
  6268   O4    0.043   -1.814   -0.755   Os   291      QTA  -0.508000
  6269   O3    1.896   -1.615    1.431   Os   291      QTA  -0.439000
  6270   C1   -1.502    0.246    1.089   Cg   292      QTB   0.306000
  6271   H1   -1.257    1.196    1.567   H2   292      QTB   0.000000
  6272   O5   -1.330    0.405   -0.373   Os   292      QTB  -0.354000
  6273   C5    0.030    0.828   -0.801   Cg   292      QTB   0.031000
  6274   H5    0.268    1.766   -0.295   H1   292      QTB   0.000000
  6275   C6    0.013    1.104   -2.311   Cg   292      QTB   0.349000
  6276  H62   -0.337    0.229   -2.862   H1   292      QTB   0.000000
  6277  H61    1.014    1.356   -2.660   H1   292      QTB   0.000000
  6278   O6   -0.864    2.208   -2.570   Os   292      QTB  -0.454000
  6279   C4    1.065   -0.223   -0.336   Cg   292      QTB   0.314000
  6280   H4    2.073    0.150   -0.526   H1   292      QTB   0.000000
  6281   O4    0.876   -1.435   -1.097   Os   292      QTB  -0.407000
  6282   C3    0.895   -0.510    1.174   Cg   292      QTB   0.174000
  6283   H3    1.179    0.402    1.702   H1   292      QTB   0.000000
  6284   C2   -0.547   -0.848    1.614   Cg   292      QTB   0.340000
  6285   H2   -0.602   -0.901    2.702   H1   292      QTB   0.000000
  6286   O2   -0.939   -2.124    1.063   Oh   292      QTB  -0.637000
  6287  H2O   -1.845   -2.317    1.317   Ho   292      QTB   0.397000
  6288   O3    1.810   -1.534    1.604   Os   292      QTB  -0.447000
  6289   C1   -0.366    1.303    0.103   Cg   293      QVA   0.389000
  6290   H1   -0.180    2.106   -0.611   H2   293      QVA   0.000000
  6291   C2    0.015   -0.059   -0.563   Cg   293      QVA   0.399000
  6292   H2    1.026    0.042   -0.963   H1   293      QVA   0.000000
  6293   N2   -0.890   -0.392   -1.691   Ng   293      QVA  -0.595000
  6294  H2N   -1.762   -0.843   -1.466    H   293      QVA   0.238000
  6295  C2N   -0.728    0.114   -2.916    C   293      QVA   0.625000
  6296  CME   -1.809   -0.246   -3.953   Cg   293      QVA   0.032000
  6297  H3M   -2.801   -0.044   -3.545   Hc   293      QVA   0.000000
  6298  H2M   -1.676    0.348   -4.858   Hc   293      QVA   0.000000
  6299  H1M   -1.734   -1.304   -4.209   Hc   293      QVA   0.000000
  6300  O2N    0.233    0.822   -3.204    O   293      QVA  -0.605000
  6301   C3    0.030   -1.202    0.485   Cg   293      QVA   0.176000
  6302   H3   -0.985   -1.341    0.859   H1   293      QVA   0.000000
  6303   C4    0.939   -0.860    1.689   Cg   293      QVA   0.326000
  6304   H4    0.863   -1.654    2.433   H1   293      QVA   0.000000
  6305   C5    0.523    0.483    2.338   Cg   293      QVA   0.112000
  6306   H5   -0.481    0.340    2.742   H1   293      QVA   0.000000
  6307   C6    1.405    0.928    3.523   Cg   293      QVA   0.362000
  6308  H62    1.008    1.842    3.964   H1   293      QVA   0.000000
  6309  H61    1.404    0.154    4.290   H1   293      QVA   0.000000
  6310   O6    2.756    1.162    3.100   Os   293      QVA  -0.481000
  6311   O5    0.432    1.568    1.310   Os   293      QVA  -0.466000
  6312   O4    2.315   -0.792    1.235   Os   293      QVA  -0.453000
  6313   O3    0.461   -2.475   -0.091   Os   293      QVA  -0.447000
  6314   C1   -1.176    0.674    0.794   Cg   294      QVB   0.305000
  6315   H1   -0.729    0.789    1.783   H2   294      QVB   0.000000
  6316   O5   -1.072    1.962    0.090   Os   294      QVB  -0.408000
  6317   C5    0.311    2.422   -0.241   Cg   294      QVB   0.136000
  6318   H5    0.844    2.590    0.697   H1   294      QVB   0.000000
  6319   C6    0.250    3.758   -1.002   Cg   294      QVB   0.353000
  6320  H62   -0.362    3.668   -1.900   H1   294      QVB   0.000000
  6321  H61    1.253    4.074   -1.296   H1   294      QVB   0.000000
  6322   O6   -0.318    4.758   -0.142   Os   294      QVB  -0.481000
  6323   C4    1.070    1.324   -1.017   Cg   294      QVB   0.253000
  6324   H4    2.109    1.629   -1.150   H1   294      QVB   0.000000
  6325   O4    0.474    1.151   -2.322   Os   294      QVB  -0.444000
  6326   C3    1.027   -0.024   -0.266   Cg   294      QVB   0.152000
  6327   H3    1.532    0.106    0.694   H1   294      QVB   0.000000
  6328   C2   -0.439   -0.471    0.016   Cg   294      QVB   0.544000
  6329   H2   -0.951   -0.613   -0.937   H1   294      QVB   0.000000
  6330   N2   -0.460   -1.736    0.785   Ng   294      QVB  -0.686000
  6331  H2N   -0.232   -1.699    1.763    H   294      QVB   0.254000
  6332  C2N   -0.799   -2.908    0.240    C   294      QVB   0.586000
  6333  O2N   -1.115   -3.017   -0.941    O   294      QVB  -0.564000
  6334  CME   -0.761   -4.133    1.177   Cg   294      QVB   0.056000
  6335  H3M   -1.072   -3.857    2.186   Hc   294      QVB   0.000000
  6336  H2M   -1.433   -4.908    0.805   Hc   294      QVB   0.000000
  6337  H1M    0.255   -4.531    1.211   Hc   294      QVB   0.000000
  6338   O3    1.793   -1.009   -1.027   Os   294      QVB  -0.444000
  6339   C1   -1.490    1.074   -0.162   Cg   295      QWA   0.462100
  6340   H1   -1.348    1.908   -0.848   H2   295      QWA   0.000000
  6341   C2   -1.059   -0.251   -0.849   Cg   295      QWA   0.275000
  6342   H2   -1.768   -0.464   -1.652   H1   295      QWA   0.000000
  6343   N2    0.279   -0.122   -1.472   Ng   295      QWA  -0.475100
  6344  H2N    1.040   -0.630   -1.051    H   295      QWA   0.214200
  6345  C2N    0.512    0.558   -2.598    C   295      QWA   0.590900
  6346  CME    1.963    0.524   -3.110   Cg   295      QWA  -0.034000
  6347  H3M    2.630    0.950   -2.359   Hc   295      QWA   0.000000
  6348  H2M    2.053    1.104   -4.030   Hc   295      QWA   0.000000
  6349  H1M    2.261   -0.506   -3.313   Hc   295      QWA   0.000000
  6350  O2N   -0.370    1.186   -3.180    O   295      QWA  -0.575700
  6351   C3   -1.108   -1.415    0.171   Cg   295      QWA   0.252000
  6352   H3   -2.149   -1.574    0.459   H1   295      QWA   0.000000
  6353   C4   -0.285   -1.115    1.449   Cg   295      QWA   0.321300
  6354   H4    0.774   -1.118    1.184   H1   295      QWA   0.000000
  6355   C5   -0.647    0.247    2.087   Cg   295      QWA   0.242100
  6356   H5   -1.648    0.160    2.515   H1   295      QWA   0.000000
  6357   C6    0.301    0.665    3.232   Cg   295      QWA   0.299500
  6358  H62    0.057    1.676    3.558   H1   295      QWA   0.000000
  6359  H61    0.168    0.000    4.086   H1   295      QWA   0.000000
  6360   O6    1.686    0.625    2.831   Os   295      QWA  -0.459900
  6361   O5   -0.710    1.329    1.057   Os   295      QWA  -0.541500
  6362   O4   -0.515   -2.166    2.434   Os   295      QWA  -0.482100
  6363   O3   -0.626   -2.645   -0.440   Os   295      QWA  -0.476800
  6364   C1   -0.878    0.125    1.789   Cg   296      QWB   0.387000
  6365   H1   -0.396    0.215    2.764   H2   296      QWB   0.000000
  6366   O5   -0.825    1.420    1.108   Os   296      QWB  -0.498000
  6367   C5    0.560    1.936    0.862   Cg   296      QWB   0.321000
  6368   H5    1.042    2.087    1.830   H1   296      QWB   0.000000
  6369   C6    0.463    3.297    0.144   Cg   296      QWB   0.247000
  6370  H62   -0.015    3.175   -0.829   H1   296      QWB   0.000000
  6371  H61    1.457    3.715   -0.014   H1   296      QWB   0.000000
  6372   O6   -0.312    4.225    0.930   Os   296      QWB  -0.444000
  6373   C4    1.374    0.895    0.054   Cg   296      QWB   0.277000
  6374   H4    0.990    0.849   -0.967   H1   296      QWB   0.000000
  6375   O4    2.758    1.312    0.010   Os   296      QWB  -0.498000
  6376   C3    1.295   -0.517    0.692   Cg   296      QWB   0.217000
  6377   H3    1.801   -0.493    1.660   H1   296      QWB   0.000000
  6378   C2   -0.169   -0.965    0.933   Cg   296      QWB   0.294000
  6379   H2   -0.146   -1.887    1.518   H1   296      QWB   0.000000
  6380   N2   -0.878   -1.240   -0.342   Ng   296      QWB  -0.558000
  6381  H2N   -1.392   -0.481   -0.759    H   296      QWB   0.265000
  6382  C2N   -0.901   -2.440   -0.931    C   296      QWB   0.585000
  6383  O2N   -0.254   -3.384   -0.483    O   296      QWB  -0.600000
  6384  CME   -1.744   -2.566   -2.218   Cg   296      QWB   0.056000
  6385  H3M   -2.425   -1.720   -2.329   Hc   296      QWB   0.000000
  6386  H2M   -2.333   -3.485   -2.187   Hc   296      QWB   0.000000
  6387  H1M   -1.079   -2.599   -3.081   Hc   296      QWB   0.000000
  6388   O3    2.002   -1.471   -0.154   Os   296      QWB  -0.439000
  6389   C1   -0.551    1.545    0.090   Cg   297      QYA   0.468000
  6390   H1   -0.381    2.388   -0.581   H2   297      QYA   0.000000
  6391   C2   -0.009    0.249   -0.584   Cg   297      QYA   0.245000
  6392   H2    1.011    0.464   -0.909   H1   297      QYA   0.000000
  6393   N2   -0.800   -0.100   -1.793   Ng   297      QYA  -0.552000
  6394  H2N   -1.774    0.163   -1.775    H   297      QYA   0.236000
  6395  C2N   -0.326   -0.780   -2.843    C   297      QYA   0.588000
  6396  CME   -1.271   -0.959   -4.050   Cg   297      QYA   0.063000
  6397  H3M   -2.225   -0.452   -3.887   Hc   297      QYA   0.000000
  6398  H2M   -0.802   -0.542   -4.943   Hc   297      QYA   0.000000
  6399  H1M   -1.459   -2.020   -4.210   Hc   297      QYA   0.000000
  6400  O2N    0.808   -1.252   -2.840    O   297      QYA  -0.579000
  6401   C3    0.054   -0.937    0.407   Cg   297      QYA   0.165000
  6402   H3   -0.965   -1.253    0.641   H1   297      QYA   0.000000
  6403   C4    0.786   -0.566    1.717   Cg   297      QYA   0.322000
  6404   H4    1.849   -0.440    1.506   H1   297      QYA   0.000000
  6405   C5    0.226    0.719    2.364   Cg   297      QYA   0.246000
  6406   H5   -0.785    0.507    2.720   H1   297      QYA   0.000000
  6407   C6    1.052    1.187    3.581   Cg   297      QYA   0.328000
  6408  H62    1.022    0.431    4.367   H1   297      QYA   0.000000
  6409  H61    0.623    2.103    3.985   H1   297      QYA   0.000000
  6410   O6    2.430    1.435    3.228   Os   297      QYA  -0.461000
  6411   O5    0.113    1.830    1.362   Os   297      QYA  -0.568000
  6412   O4    0.618   -1.663    2.648   Os   297      QYA  -0.478000
  6413   O3    0.758   -2.058   -0.202   Os   297      QYA  -0.411000
  6414   C1   -1.166    0.613    0.757   Cg   298      QYB   0.287000
  6415   H1   -0.729    0.749    1.748   H2   298      QYB   0.000000
  6416   O5   -1.112    1.895    0.043   Os   298      QYB  -0.433000
  6417   C5    0.262    2.416   -0.223   Cg   298      QYB   0.208000
  6418   H5    0.761    2.572    0.736   H1   298      QYB   0.000000
  6419   C6    0.166    3.769   -0.953   Cg   298      QYB   0.289000
  6420  H62   -0.328    3.644   -1.918   H1   298      QYB   0.000000
  6421  H61    1.160    4.180   -1.127   H1   298      QYB   0.000000
  6422   O6   -0.589    4.699   -0.156   Os   298      QYB  -0.459000
  6423   C4    1.042    1.361   -1.032   Cg   298      QYB   0.302000
  6424   H4    0.592    1.252   -2.021   H1   298      QYB   0.000000
  6425   O4    2.405    1.814   -1.187   Os   298      QYB  -0.474000
  6426   C3    1.060   -0.011   -0.318   Cg   298      QYB   0.180000
  6427   H3    1.594    0.091    0.629   H1   298      QYB   0.000000
  6428   C2   -0.387   -0.500   -0.022   Cg   298      QYB   0.480000
  6429   H2   -0.894   -0.651   -0.977   H1   298      QYB   0.000000
  6430   N2   -0.370   -1.773    0.739   Ng   298      QYB  -0.722000
  6431  H2N   -0.186   -1.724    1.727    H   298      QYB   0.300000
  6432  C2N   -0.782   -2.936    0.226    C   298      QYB   0.648000
  6433  O2N   -1.093   -3.054   -0.954    O   298      QYB  -0.576000
  6434  CME   -0.800   -4.142    1.187   Cg   298      QYB   0.034000
  6435  H3M   -1.119   -3.834    2.185   Hc   298      QYB   0.000000
  6436  H2M   -1.490   -4.903    0.819   Hc   298      QYB   0.000000
  6437  H1M    0.201   -4.571    1.247   Hc   298      QYB   0.000000
  6438   O3    1.801   -0.955   -1.153   Os   298      QYB  -0.452000
  6439   C1   -0.961    1.000    1.377   Cg   299      REA   0.480000
  6440   H1   -1.896    1.063    1.937   H2   299      REA   0.000000
  6441   C2   -0.145   -0.208    1.889   Cg   299      REA   0.179000
  6442   H2    0.272    0.014    2.873   H1   299      REA   0.000000
  6443   C3    0.971   -0.686    0.940   Cg   299      REA   0.328000
  6444   H3    1.345   -1.659    1.261   H1   299      REA   0.000000
  6445   C4    0.483   -0.769   -0.523   Cg   299      REA   0.261000
  6446   H4   -0.237   -1.585   -0.596   H1   299      REA   0.000000
  6447   C5   -0.196    0.526   -1.009   Cg   299      REA   0.374000
  6448   H5    0.532    1.340   -0.997   H1   299      REA   0.000000
  6449   C6   -0.809    0.421   -2.413   Cg   299      REA   0.259000
  6450  H62   -0.053    0.118   -3.138   H1   299      REA   0.000000
  6451  H61   -1.616   -0.313   -2.427   H1   299      REA   0.000000
  6452   O6   -1.324    1.704   -2.792   Os   299      REA  -0.451000
  6453   O5   -1.291    0.848   -0.060   Os   299      REA  -0.587000
  6454   O4    1.596   -1.089   -1.377   Os   299      REA  -0.500000
  6455   O3    2.048    0.266    1.048   Oh   299      REA  -0.714000
  6456  H3O    2.348    0.308    1.959   Ho   299      REA   0.420000
  6457   O2   -1.068   -1.298    2.048   Os   299      REA  -0.437000
  6458   C1   -1.644   -0.687    0.975   Cg   300      REB   0.488000
  6459   H1   -1.268   -0.584    1.993   H2   300      REB   0.000000
  6460   O5   -1.510    0.601    0.282   Os   300      REB  -0.532000
  6461   C5   -0.096    1.058    0.068   Cg   300      REB   0.257000
  6462   H5    0.361    1.227    1.045   H1   300      REB   0.000000
  6463   C6   -0.109    2.391   -0.704   Cg   300      REB   0.278000
  6464  H62   -0.560    2.252   -1.688   H1   300      REB   0.000000
  6465  H61    0.906    2.764   -0.842   H1   300      REB   0.000000
  6466   O6   -0.870    3.373    0.022   Os   300      REB  -0.463000
  6467   C4    0.700   -0.040   -0.681   Cg   300      REB   0.320000
  6468   H4    0.292   -0.139   -1.688   H1   300      REB   0.000000
  6469   O4    2.100    0.341   -0.809   Os   300      REB  -0.498000
  6470   C3    0.584   -1.410    0.041   Cg   300      REB   0.315000
  6471   H3    1.106   -2.169   -0.543   H1   300      REB   0.000000
  6472   O3    1.202   -1.350    1.356   Oh   300      REB  -0.681000
  6473  H3O    2.086   -0.973    1.260   Ho   300      REB   0.403000
  6474   C2   -0.889   -1.824    0.221   Cg   300      REB   0.184000
  6475   H2   -0.946   -2.746    0.802   H1   300      REB   0.000000
  6476   O2   -1.446   -2.085   -1.106   Os   300      REB  -0.459000
  6477   C1   -0.891   -0.379    1.737   Cg   301      RGA   0.509000
  6478   H1   -1.800   -0.740    2.218   H2   301      RGA   0.000000
  6479   C2   -0.175   -1.557    1.015   Cg   301      RGA   0.246000
  6480   H2   -0.913   -2.053    0.382   H1   301      RGA   0.000000
  6481   C3    0.975   -1.053    0.118   Cg   301      RGA   0.286000
  6482   H3    1.784   -0.677    0.748   H1   301      RGA   0.000000
  6483   C4    0.512    0.059   -0.852   Cg   301      RGA   0.254000
  6484   H4   -0.194   -0.358   -1.573   H1   301      RGA   0.000000
  6485   C5   -0.159    1.221   -0.091   Cg   301      RGA   0.283000
  6486   H5    0.594    1.698    0.540   H1   301      RGA   0.000000
  6487   C6   -0.747    2.290   -1.041   Cg   301      RGA   0.276000
  6488  H62   -0.034    2.542   -1.826   H1   301      RGA   0.000000
  6489  H61   -1.652    1.908   -1.518   H1   301      RGA   0.000000
  6490   O6   -1.064    3.500   -0.319   Os   301      RGA  -0.458000
  6491   O5   -1.243    0.682    0.794   Os   301      RGA  -0.574000
  6492   O4    1.666    0.568   -1.570   Os   301      RGA  -0.468000
  6493   O3    1.475   -2.171   -0.663   Oh   301      RGA  -0.699000
  6494  H3O    1.536   -2.933   -0.070   Ho   301      RGA   0.427000
  6495   O2    0.329   -2.546    1.971   Os   301      RGA  -0.470000
  6496   C1   -1.535   -0.646    1.104   Cg   302      RGB   0.384000
  6497   H1   -1.140   -0.533    2.115   H2   302      RGB   0.000000
  6498   O5   -1.474    0.648    0.416   Os   302      RGB  -0.471000
  6499   C5   -0.098    1.184    0.185   Cg   302      RGB   0.225000
  6500   H5    0.386    1.317    1.155   H1   302      RGB   0.000000
  6501   C6   -0.196    2.558   -0.507   Cg   302      RGB   0.282000
  6502  H62   -0.665    2.453   -1.486   H1   302      RGB   0.000000
  6503  H61    0.795    2.990   -0.645   H1   302      RGB   0.000000
  6504   O6   -0.987    3.454    0.297   Os   302      RGB  -0.458000
  6505   C4    0.706    0.161   -0.644   Cg   302      RGB   0.276000
  6506   H4    0.277    0.091   -1.646   H1   302      RGB   0.000000
  6507   O4    2.075    0.618   -0.754   Os   302      RGB  -0.468000
  6508   C3    0.690   -1.237    0.020   Cg   302      RGB   0.284000
  6509   H3    1.249   -1.194    0.957   H1   302      RGB   0.000000
  6510   O3    1.347   -2.185   -0.866   Oh   302      RGB  -0.709000
  6511  H3O    1.255   -3.062   -0.470   Ho   302      RGB   0.432000
  6512   C2   -0.746   -1.726    0.313   Cg   302      RGB   0.310000
  6513   H2   -1.259   -1.929   -0.629   H1   302      RGB   0.000000
  6514   O2   -0.678   -2.961    1.085   Os   302      RGB  -0.475000
  6515   C1   -1.061    0.938    1.332   Cg   303      RKA   0.473000
  6516   H1   -1.994    0.963    1.895   H2   303      RKA   0.000000
  6517   C2   -0.200   -0.239    1.840   Cg   303      RKA   0.281000
  6518   H2   -0.850   -1.116    1.841   H1   303      RKA   0.000000
  6519   C3    1.018   -0.591    0.960   Cg   303      RKA   0.354000
  6520   H3    1.469   -1.522    1.306   H1   303      RKA   0.000000
  6521   C4    0.617   -0.716   -0.523   Cg   303      RKA   0.196000
  6522   H4    1.512   -0.802   -1.141   H1   303      RKA   0.000000
  6523   C5   -0.237    0.476   -1.022   Cg   303      RKA   0.301000
  6524   H5    0.399    1.364   -1.002   H1   303      RKA   0.000000
  6525   C6   -0.781    0.327   -2.450   Cg   303      RKA   0.287000
  6526  H62    0.030    0.095   -3.140   H1   303      RKA   0.000000
  6527  H61   -1.521   -0.472   -2.503   H1   303      RKA   0.000000
  6528   O6   -1.390    1.564   -2.847   Os   303      RKA  -0.463000
  6529   O5   -1.379    0.705   -0.095   Os   303      RKA  -0.540000
  6530   O4   -0.137   -1.934   -0.663   Os   303      RKA  -0.486000
  6531   O3    2.012    0.448    1.047   Oh   303      RKA  -0.744000
  6532  H3O    2.295    0.543    1.959   Ho   303      RKA   0.436000
  6533   O2    0.199   -0.029    3.206   Os   303      RKA  -0.483000
  6534   C1   -1.544   -0.587    1.031   Cg   304      RKB   0.449000
  6535   H1   -1.150   -0.436    2.037   H2   304      RKB   0.000000
  6536   O5   -1.452    0.666    0.276   Os   304      RKB  -0.514000
  6537   C5   -0.057    1.124   -0.026   Cg   304      RKB   0.303000
  6538   H5    0.445    1.319    0.924   H1   304      RKB   0.000000
  6539   C6   -0.111    2.452   -0.807   Cg   304      RKB   0.259000
  6540  H62   -0.678    2.330   -1.730   H1   304      RKB   0.000000
  6541  H61    0.897    2.776   -1.065   H1   304      RKB   0.000000
  6542   O6   -0.736    3.474   -0.007   Os   304      RKB  -0.448000
  6543   C4    0.742    0.016   -0.765   Cg   304      RKB   0.217000
  6544   H4    1.784    0.327   -0.846   H1   304      RKB   0.000000
  6545   O4    0.233   -0.180   -2.114   Os   304      RKB  -0.469000
  6546   C3    0.665   -1.327   -0.005   Cg   304      RKB   0.253000
  6547   H3    1.142   -2.108   -0.599   H1   304      RKB   0.000000
  6548   O3    1.414   -1.186    1.231   Oh   304      RKB  -0.710000
  6549  H3O    1.298   -2.006    1.732   Ho   304      RKB   0.442000
  6550   C2   -0.795   -1.739    0.298   Cg   304      RKB   0.308000
  6551   H2   -1.301   -1.943   -0.647   H1   304      RKB   0.000000
  6552   O2   -0.798   -2.972    1.082   Os   304      RKB  -0.478000
  6553   C1   -1.099    1.020    1.284   Cg   305      RLA   0.465000
  6554   H1   -2.050    1.032    1.817   H2   305      RLA   0.000000
  6555   C2   -0.235   -0.145    1.821   Cg   305      RLA   0.339000
  6556   H2   -0.853   -1.045    1.834   H1   305      RLA   0.000000
  6557   C3    1.010   -0.404    0.951   Cg   305      RLA   0.253000
  6558   H3    1.687    0.447    1.031   H1   305      RLA   0.000000
  6559   C4    0.638   -0.597   -0.535   Cg   305      RLA   0.204000
  6560   H4    1.545   -0.698   -1.133   H1   305      RLA   0.000000
  6561   C5   -0.189    0.604   -1.044   Cg   305      RLA   0.216000
  6562   H5    0.445    1.491   -0.975   H1   305      RLA   0.000000
  6563   C6   -0.673    0.488   -2.496   Cg   305      RLA   0.308000
  6564  H62    0.166    0.274   -3.158   H1   305      RLA   0.000000
  6565  H61   -1.408   -0.313   -2.599   H1   305      RLA   0.000000
  6566   O6   -1.269    1.732   -2.887   Os   305      RLA  -0.460000
  6567   O5   -1.369    0.801   -0.157   Os   305      RLA  -0.527000
  6568   O4   -0.157   -1.794   -0.689   Os   305      RLA  -0.431000
  6569   O3    1.705   -1.575    1.419   Oh   305      RLA  -0.701000
  6570  H3O    1.947   -1.456    2.341   Ho   305      RLA   0.433000
  6571   O2    0.160    0.138    3.176   Os   305      RLA  -0.487000
  6572   C1   -1.531   -0.620    1.122   Cg   306      RLB   0.374000
  6573   H1   -1.137   -0.511    2.134   H2   306      RLB   0.000000
  6574   O5   -1.454    0.681    0.444   Os   306      RLB  -0.402000
  6575   C5   -0.078    1.190    0.156   Cg   306      RLB   0.140000
  6576   H5    0.438    1.326    1.109   H1   306      RLB   0.000000
  6577   C6   -0.164    2.562   -0.536   Cg   306      RLB   0.319000
  6578  H62   -0.756    2.498   -1.451   H1   306      RLB   0.000000
  6579  H61    0.833    2.920   -0.793   H1   306      RLB   0.000000
  6580   O6   -0.780    3.501    0.360   Os   306      RLB  -0.468000
  6581   C4    0.715    0.146   -0.661   Cg   306      RLB   0.203000
  6582   H4    1.747    0.481   -0.771   H1   306      RLB   0.000000
  6583   O4    0.132    0.016   -1.981   Os   306      RLB  -0.421000
  6584   C3    0.697   -1.227    0.051   Cg   306      RLB   0.259000
  6585   H3    1.233   -1.124    0.998   H1   306      RLB   0.000000
  6586   O3    1.416   -2.195   -0.762   Oh   306      RLB  -0.694000
  6587  H3O    1.349   -3.052   -0.320   Ho   306      RLB   0.433000
  6588   C2   -0.740   -1.715    0.346   Cg   306      RLB   0.357000
  6589   H2   -1.252   -1.941   -0.592   H1   306      RLB   0.000000
  6590   O2   -0.666   -2.933    1.146   Os   306      RLB  -0.488000
  6591   C1   -1.047   -0.364    1.680   Cg   307      RMA   0.433000
  6592   H1   -2.012   -0.681    2.076   H2   307      RMA   0.000000
  6593   C2   -0.342   -1.571    0.998   Cg   307      RMA   0.245000
  6594   H2   -0.037   -2.289    1.760   H1   307      RMA   0.000000
  6595   C3    0.905   -1.100    0.217   Cg   307      RMA   0.252000
  6596   H3    1.632   -0.705    0.929   H1   307      RMA   0.000000
  6597   C4    0.553    0.014   -0.801   Cg   307      RMA   0.326000
  6598   H4   -0.118   -0.381   -1.565   H1   307      RMA   0.000000
  6599   C5   -0.109    1.214   -0.087   Cg   307      RMA   0.276000
  6600   H5    0.631    1.667    0.577   H1   307      RMA   0.000000
  6601   C6   -0.596    2.288   -1.084   Cg   307      RMA   0.266000
  6602  H62    0.178    2.506   -1.820   H1   307      RMA   0.000000
  6603  H61   -1.477    1.931   -1.618   H1   307      RMA   0.000000
  6604   O6   -0.921    3.518   -0.400   Os   307      RMA  -0.460000
  6605   O5   -1.262    0.753    0.749   Os   307      RMA  -0.507000
  6606   O4    1.777    0.465   -1.440   Os   307      RMA  -0.489000
  6607   O3    1.522   -2.241   -0.455   Oh   307      RMA  -0.696000
  6608  H3O    1.989   -2.784    0.191   Ho   307      RMA   0.431000
  6609   O2   -1.267   -2.242    0.092   Os   307      RMA  -0.465000
  6610   C1   -1.583   -0.643    1.167   Cg   308      RMB   0.314000
  6611   H1   -1.101   -0.600    2.145   H2   308      RMB   0.000000
  6612   O5   -1.475    0.677    0.530   Os   308      RMB  -0.393000
  6613   C5   -0.086    1.136    0.207   Cg   308      RMB   0.206000
  6614   H5    0.438    1.303    1.151   H1   308      RMB   0.000000
  6615   C6   -0.165    2.472   -0.553   Cg   308      RMB   0.273000
  6616  H62   -0.687    2.336   -1.501   H1   308      RMB   0.000000
  6617  H61    0.834    2.852   -0.764   H1   308      RMB   0.000000
  6618   O6   -0.874    3.443    0.237   Os   308      RMB  -0.455000
  6619   C4    0.678    0.056   -0.600   Cg   308      RMB   0.349000
  6620   H4    0.269   -0.009   -1.610   H1   308      RMB   0.000000
  6621   O4    2.072    0.453   -0.690   Os   308      RMB  -0.497000
  6622   C3    0.573   -1.324    0.105   Cg   308      RMB   0.263000
  6623   H3    1.022   -1.243    1.097   H1   308      RMB   0.000000
  6624   O3    1.309   -2.359   -0.609   Oh   308      RMB  -0.692000
  6625  H3O    2.242   -2.310   -0.377   Ho   308      RMB   0.430000
  6626   C2   -0.909   -1.731    0.286   Cg   308      RMB   0.241000
  6627   H2   -0.972   -2.701    0.782   H1   308      RMB   0.000000
  6628   O2   -1.585   -1.810   -1.004   Os   308      RMB  -0.427000
  6629   C1   -1.028    1.047    1.396   Cg   309      RNA   0.478000
  6630   H1   -1.974    1.141    1.928   H2   309      RNA   0.000000
  6631   C2   -0.292   -0.214    1.900   Cg   309      RNA   0.228000
  6632   H2   -1.008   -1.035    1.849   H1   309      RNA   0.000000
  6633   C3    0.930   -0.634    1.060   Cg   309      RNA   0.330000
  6634   H3    1.313   -1.593    1.413   H1   309      RNA   0.000000
  6635   C4    0.496   -0.750   -0.416   Cg   309      RNA   0.167000
  6636   H4   -0.201   -1.586   -0.498   H1   309      RNA   0.000000
  6637   C5   -0.198    0.519   -0.960   Cg   309      RNA   0.404000
  6638   H5    0.520    1.342   -0.969   H1   309      RNA   0.000000
  6639   C6   -0.782    0.349   -2.369   Cg   309      RNA   0.280000
  6640  H62   -0.008    0.030   -3.068   H1   309      RNA   0.000000
  6641  H61   -1.576   -0.400   -2.369   H1   309      RNA   0.000000
  6642   O6   -1.312    1.606   -2.810   Os   309      RNA  -0.461000
  6643   O5   -1.318    0.876   -0.046   Os   309      RNA  -0.611000
  6644   O4    1.646   -1.057   -1.225   Os   309      RNA  -0.483000
  6645   O3    1.971    0.360    1.188   Oh   309      RNA  -0.714000
  6646  H3O    2.750    0.070    0.707   Ho   309      RNA   0.441000
  6647   O2    0.069   -0.070    3.286   Os   309      RNA  -0.447000
  6648   C1   -1.536   -0.625    1.038   Cg   310      RNB   0.422000
  6649   H1   -1.135   -0.503    2.046   H2   310      RNB   0.000000
  6650   O5   -1.442    0.654    0.319   Os   310      RNB  -0.507000
  6651   C5   -0.055    1.121   -0.006   Cg   310      RNB   0.198000
  6652   H5    0.483    1.283    0.929   H1   310      RNB   0.000000
  6653   C6   -0.126    2.463   -0.760   Cg   310      RNB   0.313000
  6654  H62   -0.656    2.340   -1.705   H1   310      RNB   0.000000
  6655  H61    0.874    2.841   -0.971   H1   310      RNB   0.000000
  6656   O6   -0.827    3.423    0.050   Os   310      RNB  -0.465000
  6657   C4    0.658    0.016   -0.820   Cg   310      RNB   0.286000
  6658   H4    0.129   -0.118   -1.765   H1   310      RNB   0.000000
  6659   O4    2.019    0.403   -1.126   Os   310      RNB  -0.471000
  6660   C3    0.661   -1.329   -0.058   Cg   310      RNB   0.234000
  6661   H3    1.136   -2.098   -0.671   H1   310      RNB   0.000000
  6662   O3    1.419   -1.192    1.180   Oh   310      RNB  -0.615000
  6663  H3O    1.257   -1.984    1.710   Ho   310      RNB   0.389000
  6664   C2   -0.788   -1.753    0.266   Cg   310      RNB   0.301000
  6665   H2   -1.308   -1.942   -0.677   H1   310      RNB   0.000000
  6666   O2   -0.764   -3.000    1.022   Os   310      RNB  -0.473000
  6667   C1   -1.087    1.023    1.305   Cg   311      RTA   0.456000
  6668   H1   -2.049    1.036    1.818   H2   311      RTA   0.000000
  6669   C2   -0.224   -0.124    1.868   Cg   311      RTA   0.245000
  6670   H2    0.128    0.127    2.869   H1   311      RTA   0.000000
  6671   C3    0.981   -0.444    0.956   Cg   311      RTA   0.124000
  6672   H3    1.665    0.402    1.031   H1   311      RTA   0.000000
  6673   C4    0.639   -0.607   -0.540   Cg   311      RTA   0.434000
  6674   H4    1.559   -0.700   -1.119   H1   311      RTA   0.000000
  6675   C5   -0.156    0.623   -1.030   Cg   311      RTA   0.157000
  6676   H5    0.499    1.493   -0.941   H1   311      RTA   0.000000
  6677   C6   -0.635    0.545   -2.486   Cg   311      RTA   0.304000
  6678  H62    0.202    0.319   -3.147   H1   311      RTA   0.000000
  6679  H61   -1.391   -0.232   -2.606   H1   311      RTA   0.000000
  6680   O6   -1.193    1.812   -2.859   Os   311      RTA  -0.462000
  6681   O5   -1.335    0.838   -0.147   Os   311      RTA  -0.480000
  6682   O4   -0.156   -1.794   -0.745   Os   311      RTA  -0.508000
  6683   O3    1.697   -1.594    1.441   Oh   311      RTA  -0.687000
  6684  H3O    1.947   -1.452    2.357   Ho   311      RTA   0.442000
  6685   O2   -1.090   -1.270    1.974   Os   311      RTA  -0.413000
  6686   C1   -1.683    0.248    1.097   Cg   312      RTB   0.306000
  6687   H1   -1.438    1.198    1.575   H2   312      RTB   0.000000
  6688   O5   -1.511    0.408   -0.365   Os   312      RTB  -0.354000
  6689   C5   -0.151    0.830   -0.793   Cg   312      RTB   0.031000
  6690   H5    0.087    1.769   -0.287   H1   312      RTB   0.000000
  6691   C6   -0.168    1.106   -2.303   Cg   312      RTB   0.349000
  6692  H62   -0.518    0.231   -2.854   H1   312      RTB   0.000000
  6693  H61    0.833    1.358   -2.652   H1   312      RTB   0.000000
  6694   O6   -1.045    2.211   -2.562   Os   312      RTB  -0.454000
  6695   C4    0.884   -0.221   -0.328   Cg   312      RTB   0.314000
  6696   H4    1.892    0.152   -0.518   H1   312      RTB   0.000000
  6697   O4    0.695   -1.432   -1.089   Os   312      RTB  -0.407000
  6698   C3    0.714   -0.508    1.182   Cg   312      RTB   0.174000
  6699   H3    0.998    0.404    1.710   H1   312      RTB   0.000000
  6700   O3    1.629   -1.532    1.612   Oh   312      RTB  -0.678000
  6701  H3O    1.414   -2.357    1.171   Ho   312      RTB   0.425000
  6702   C2   -0.728   -0.846    1.622   Cg   312      RTB   0.340000
  6703   H2   -0.783   -0.898    2.710   H1   312      RTB   0.000000
  6704   O2   -1.120   -2.122    1.071   Os   312      RTB  -0.434000
  6705   C1   -0.956    1.037    1.549   Cg   313      SEA   0.480000
  6706   H1   -1.891    1.100    2.109   H2   313      SEA   0.000000
  6707   C2   -0.140   -0.171    2.061   Cg   313      SEA   0.179000
  6708   H2    0.277    0.051    3.046   H1   313      SEA   0.000000
  6709   C3    0.976   -0.649    1.112   Cg   313      SEA   0.328000
  6710   H3    1.350   -1.622    1.434   H1   313      SEA   0.000000
  6711   C4    0.488   -0.732   -0.350   Cg   313      SEA   0.261000
  6712   H4   -0.232   -1.548   -0.423   H1   313      SEA   0.000000
  6713   C5   -0.191    0.563   -0.837   Cg   313      SEA   0.374000
  6714   H5    0.537    1.377   -0.825   H1   313      SEA   0.000000
  6715   C6   -0.804    0.458   -2.240   Cg   313      SEA   0.259000
  6716  H62   -0.048    0.155   -2.965   H1   313      SEA   0.000000
  6717  H61   -1.611   -0.276   -2.255   H1   313      SEA   0.000000
  6718   O6   -1.319    1.741   -2.620   Os   313      SEA  -0.451000
  6719   O5   -1.286    0.885    0.112   Os   313      SEA  -0.587000
  6720   O4    1.601   -1.052   -1.205   Oh   313      SEA  -0.721000
  6721  H4O    2.260   -0.358   -1.144   Ho   313      SEA   0.415000
  6722   O3    2.053    0.303    1.220   Os   313      SEA  -0.488000
  6723   O2   -1.063   -1.261    2.221   Os   313      SEA  -0.437000
  6724   C1   -1.667   -0.731    1.122   Cg   314      SEB   0.488000
  6725   H1   -1.291   -0.628    2.140   H2   314      SEB   0.000000
  6726   O5   -1.532    0.557    0.429   Os   314      SEB  -0.532000
  6727   C5   -0.119    1.014    0.215   Cg   314      SEB   0.257000
  6728   H5    0.339    1.183    1.192   H1   314      SEB   0.000000
  6729   C6   -0.131    2.347   -0.557   Cg   314      SEB   0.278000
  6730  H62   -0.582    2.208   -1.541   H1   314      SEB   0.000000
  6731  H61    0.884    2.720   -0.695   H1   314      SEB   0.000000
  6732   O6   -0.892    3.329    0.170   Os   314      SEB  -0.463000
  6733   C4    0.678   -0.084   -0.534   Cg   314      SEB   0.320000
  6734   H4    0.270   -0.183   -1.541   H1   314      SEB   0.000000
  6735   O4    2.078    0.297   -0.662   Oh   314      SEB  -0.724000
  6736  H4O    2.485   -0.181   -1.393   Ho   314      SEB   0.420000
  6737   C3    0.562   -1.454    0.189   Cg   314      SEB   0.315000
  6738   H3    1.084   -2.213   -0.395   H1   314      SEB   0.000000
  6739   O3    1.180   -1.394    1.503   Os   314      SEB  -0.472000
  6740   C2   -0.911   -1.868    0.368   Cg   314      SEB   0.184000
  6741   H2   -0.968   -2.790    0.949   H1   314      SEB   0.000000
  6742   O2   -1.468   -2.129   -0.959   Os   314      SEB  -0.459000
  6743   C1   -0.922   -0.523    1.835   Cg   315      SGA   0.509000
  6744   H1   -1.831   -0.884    2.316   H2   315      SGA   0.000000
  6745   C2   -0.207   -1.701    1.113   Cg   315      SGA   0.246000
  6746   H2   -0.944   -2.197    0.480   H1   315      SGA   0.000000
  6747   C3    0.943   -1.197    0.216   Cg   315      SGA   0.286000
  6748   H3    1.752   -0.821    0.846   H1   315      SGA   0.000000
  6749   C4    0.481   -0.085   -0.754   Cg   315      SGA   0.254000
  6750   H4   -0.226   -0.502   -1.475   H1   315      SGA   0.000000
  6751   C5   -0.191    1.077    0.007   Cg   315      SGA   0.283000
  6752   H5    0.563    1.554    0.638   H1   315      SGA   0.000000
  6753   C6   -0.779    2.146   -0.943   Cg   315      SGA   0.276000
  6754  H62   -0.066    2.398   -1.728   H1   315      SGA   0.000000
  6755  H61   -1.683    1.764   -1.420   H1   315      SGA   0.000000
  6756   O6   -1.096    3.356   -0.221   Os   315      SGA  -0.458000
  6757   O5   -1.274    0.538    0.892   Os   315      SGA  -0.574000
  6758   O4    1.635    0.424   -1.472   Oh   315      SGA  -0.710000
  6759  H4O    2.105   -0.339   -1.836   Ho   315      SGA   0.436000
  6760   O3    1.443   -2.315   -0.565   Os   315      SGA  -0.466000
  6761   O2    0.297   -2.691    2.069   Os   315      SGA  -0.470000
  6762   C1   -1.605   -0.802    1.140   Cg   316      SGB   0.384000
  6763   H1   -1.210   -0.690    2.151   H2   316      SGB   0.000000
  6764   O5   -1.544    0.491    0.453   Os   316      SGB  -0.471000
  6765   C5   -0.168    1.028    0.222   Cg   316      SGB   0.225000
  6766   H5    0.316    1.161    1.192   H1   316      SGB   0.000000
  6767   C6   -0.266    2.401   -0.470   Cg   316      SGB   0.282000
  6768  H62   -0.735    2.297   -1.450   H1   316      SGB   0.000000
  6769  H61    0.725    2.833   -0.609   H1   316      SGB   0.000000
  6770   O6   -1.057    3.297    0.333   Os   316      SGB  -0.458000
  6771   C4    0.635    0.005   -0.607   Cg   316      SGB   0.276000
  6772   H4    0.207   -0.065   -1.609   H1   316      SGB   0.000000
  6773   O4    2.005    0.462   -0.717   Oh   316      SGB  -0.714000
  6774  H4O    2.515   -0.249   -1.130   Ho   316      SGB   0.440000
  6775   C3    0.620   -1.394    0.057   Cg   316      SGB   0.284000
  6776   H3    1.179   -1.350    0.994   H1   316      SGB   0.000000
  6777   O3    1.277   -2.341   -0.829   Os   316      SGB  -0.471000
  6778   C2   -0.816   -1.882    0.350   Cg   316      SGB   0.310000
  6779   H2   -1.329   -2.085   -0.592   H1   316      SGB   0.000000
  6780   O2   -0.748   -3.117    1.122   Os   316      SGB  -0.475000
  6781   C1   -0.919    1.075    1.519   Cg   317      SKA   0.473000
  6782   H1   -1.853    1.100    2.081   H2   317      SKA   0.000000
  6783   C2   -0.059   -0.103    2.026   Cg   317      SKA   0.281000
  6784   H2   -0.709   -0.979    2.027   H1   317      SKA   0.000000
  6785   C3    1.159   -0.455    1.146   Cg   317      SKA   0.354000
  6786   H3    1.610   -1.386    1.493   H1   317      SKA   0.000000
  6787   C4    0.758   -0.579   -0.337   Cg   317      SKA   0.196000
  6788   H4    1.653   -0.666   -0.954   H1   317      SKA   0.000000
  6789   C5   -0.096    0.613   -0.836   Cg   317      SKA   0.301000
  6790   H5    0.540    1.500   -0.816   H1   317      SKA   0.000000
  6791   C6   -0.640    0.464   -2.264   Cg   317      SKA   0.287000
  6792  H62    0.171    0.232   -2.954   H1   317      SKA   0.000000
  6793  H61   -1.380   -0.336   -2.316   H1   317      SKA   0.000000
  6794   O6   -1.249    1.701   -2.660   Os   317      SKA  -0.463000
  6795   O5   -1.238    0.842    0.092   Os   317      SKA  -0.540000
  6796   O4    0.004   -1.797   -0.476   Oh   317      SKA  -0.712000
  6797  H4O   -0.243   -1.917   -1.396   Ho   317      SKA   0.420000
  6798   O3    2.153    0.584    1.233   Os   317      SKA  -0.502000
  6799   O2    0.340    0.107    3.393   Os   317      SKA  -0.483000
  6800   C1   -1.521   -0.657    1.261   Cg   318      SKB   0.449000
  6801   H1   -1.127   -0.507    2.268   H2   318      SKB   0.000000
  6802   O5   -1.430    0.595    0.507   Os   318      SKB  -0.514000
  6803   C5   -0.035    1.053    0.205   Cg   318      SKB   0.303000
  6804   H5    0.467    1.248    1.155   H1   318      SKB   0.000000
  6805   C6   -0.089    2.381   -0.577   Cg   318      SKB   0.259000
  6806  H62   -0.656    2.259   -1.500   H1   318      SKB   0.000000
  6807  H61    0.919    2.705   -0.835   H1   318      SKB   0.000000
  6808   O6   -0.713    3.403    0.224   Os   318      SKB  -0.448000
  6809   C4    0.764   -0.055   -0.534   Cg   318      SKB   0.217000
  6810   H4    1.806    0.256   -0.616   H1   318      SKB   0.000000
  6811   O4    0.255   -0.251   -1.883   Oh   318      SKB  -0.700000
  6812  H4O    0.898   -0.732   -2.418   Ho   318      SKB   0.425000
  6813   C3    0.687   -1.398    0.226   Cg   318      SKB   0.253000
  6814   H3    1.164   -2.178   -0.369   H1   318      SKB   0.000000
  6815   O3    1.437   -1.257    1.461   Os   318      SKB  -0.462000
  6816   C2   -0.773   -1.810    0.528   Cg   318      SKB   0.308000
  6817   H2   -1.278   -2.013   -0.417   H1   318      SKB   0.000000
  6818   O2   -0.775   -3.043    1.313   Os   318      SKB  -0.478000
  6819   C1   -0.976    1.044    1.492   Cg   319      SLA   0.465000
  6820   H1   -1.927    1.056    2.025   H2   319      SLA   0.000000
  6821   C2   -0.112   -0.122    2.029   Cg   319      SLA   0.339000
  6822   H2   -0.730   -1.021    2.042   H1   319      SLA   0.000000
  6823   C3    1.133   -0.380    1.159   Cg   319      SLA   0.253000
  6824   H3    1.810    0.471    1.239   H1   319      SLA   0.000000
  6825   C4    0.760   -0.573   -0.327   Cg   319      SLA   0.204000
  6826   H4    1.668   -0.674   -0.925   H1   319      SLA   0.000000
  6827   C5   -0.066    0.628   -0.836   Cg   319      SLA   0.216000
  6828   H5    0.567    1.515   -0.767   H1   319      SLA   0.000000
  6829   C6   -0.550    0.511   -2.288   Cg   319      SLA   0.308000
  6830  H62    0.289    0.298   -2.950   H1   319      SLA   0.000000
  6831  H61   -1.285   -0.289   -2.391   H1   319      SLA   0.000000
  6832   O6   -1.146    1.756   -2.679   Os   319      SLA  -0.460000
  6833   O5   -1.246    0.825    0.052   Os   319      SLA  -0.527000
  6834   O4   -0.034   -1.770   -0.481   Oh   319      SLA  -0.673000
  6835  H4O   -0.266   -1.884   -1.406   Ho   319      SLA   0.436000
  6836   O3    1.828   -1.551    1.627   Os   319      SLA  -0.462000
  6837   O2    0.283    0.161    3.385   Os   319      SLA  -0.487000
  6838   C1   -1.490   -0.743    1.233   Cg   320      SLB   0.374000
  6839   H1   -1.097   -0.634    2.244   H2   320      SLB   0.000000
  6840   O5   -1.413    0.558    0.555   Os   320      SLB  -0.402000
  6841   C5   -0.037    1.067    0.267   Cg   320      SLB   0.140000
  6842   H5    0.479    1.203    1.220   H1   320      SLB   0.000000
  6843   C6   -0.124    2.439   -0.426   Cg   320      SLB   0.319000
  6844  H62   -0.716    2.375   -1.340   H1   320      SLB   0.000000
  6845  H61    0.873    2.797   -0.683   H1   320      SLB   0.000000
  6846   O6   -0.740    3.378    0.470   Os   320      SLB  -0.468000
  6847   C4    0.755    0.023   -0.550   Cg   320      SLB   0.203000
  6848   H4    1.788    0.358   -0.660   H1   320      SLB   0.000000
  6849   O4    0.172   -0.106   -1.871   Oh   320      SLB  -0.664000
  6850  H4O    0.619   -0.843   -2.309   Ho   320      SLB   0.437000
  6851   C3    0.738   -1.349    0.162   Cg   320      SLB   0.259000
  6852   H3    1.273   -1.247    1.108   H1   320      SLB   0.000000
  6853   O3    1.457   -2.318   -0.652   Os   320      SLB  -0.455000
  6854   C2   -0.700   -1.838    0.457   Cg   320      SLB   0.357000
  6855   H2   -1.212   -2.064   -0.481   H1   320      SLB   0.000000
  6856   O2   -0.625   -3.056    1.257   Os   320      SLB  -0.488000
  6857   C1   -1.060   -0.494    1.784   Cg   321      SMA   0.433000
  6858   H1   -2.025   -0.811    2.180   H2   321      SMA   0.000000
  6859   C2   -0.354   -1.700    1.103   Cg   321      SMA   0.245000
  6860   H2   -0.050   -2.419    1.865   H1   321      SMA   0.000000
  6861   C3    0.893   -1.229    0.321   Cg   321      SMA   0.252000
  6862   H3    1.620   -0.834    1.033   H1   321      SMA   0.000000
  6863   C4    0.541   -0.116   -0.697   Cg   321      SMA   0.326000
  6864   H4   -0.131   -0.511   -1.461   H1   321      SMA   0.000000
  6865   C5   -0.121    1.085    0.017   Cg   321      SMA   0.276000
  6866   H5    0.618    1.537    0.681   H1   321      SMA   0.000000
  6867   C6   -0.608    2.159   -0.980   Cg   321      SMA   0.266000
  6868  H62    0.166    2.377   -1.716   H1   321      SMA   0.000000
  6869  H61   -1.489    1.801   -1.514   H1   321      SMA   0.000000
  6870   O6   -0.933    3.388   -0.296   Os   321      SMA  -0.460000
  6871   O5   -1.274    0.623    0.853   Os   321      SMA  -0.507000
  6872   O4    1.764    0.335   -1.336   Oh   321      SMA  -0.733000
  6873  H4O    2.211   -0.447   -1.684   Ho   321      SMA   0.438000
  6874   O3    1.510   -2.371   -0.350   Os   321      SMA  -0.459000
  6875   O2   -1.279   -2.372    0.196   Os   321      SMA  -0.465000
  6876   C1   -1.595   -0.764    1.223   Cg   322      SMB   0.314000
  6877   H1   -1.114   -0.721    2.201   H2   322      SMB   0.000000
  6878   O5   -1.487    0.557    0.586   Os   322      SMB  -0.393000
  6879   C5   -0.098    1.015    0.263   Cg   322      SMB   0.206000
  6880   H5    0.426    1.182    1.207   H1   322      SMB   0.000000
  6881   C6   -0.177    2.351   -0.498   Cg   322      SMB   0.273000
  6882  H62   -0.700    2.215   -1.446   H1   322      SMB   0.000000
  6883  H61    0.822    2.732   -0.708   H1   322      SMB   0.000000
  6884   O6   -0.886    3.322    0.293   Os   322      SMB  -0.455000
  6885   C4    0.666   -0.065   -0.545   Cg   322      SMB   0.349000
  6886   H4    0.257   -0.129   -1.554   H1   322      SMB   0.000000
  6887   O4    2.060    0.332   -0.635   Oh   322      SMB  -0.746000
  6888  H4O    2.461   -0.135   -1.375   Ho   322      SMB   0.443000
  6889   C3    0.560   -1.444    0.160   Cg   322      SMB   0.263000
  6890   H3    1.010   -1.364    1.152   H1   322      SMB   0.000000
  6891   O3    1.297   -2.480   -0.553   Os   322      SMB  -0.456000
  6892   C2   -0.921   -1.852    0.341   Cg   322      SMB   0.241000
  6893   H2   -0.985   -2.822    0.837   H1   322      SMB   0.000000
  6894   O2   -1.597   -1.931   -0.949   Os   322      SMB  -0.427000
  6895   C1   -1.003    1.068    1.495   Cg   323      SNA   0.478000
  6896   H1   -1.949    1.162    2.028   H2   323      SNA   0.000000
  6897   C2   -0.266   -0.192    1.999   Cg   323      SNA   0.228000
  6898   H2   -0.983   -1.013    1.948   H1   323      SNA   0.000000
  6899   C3    0.955   -0.613    1.159   Cg   323      SNA   0.330000
  6900   H3    1.338   -1.572    1.513   H1   323      SNA   0.000000
  6901   C4    0.521   -0.729   -0.317   Cg   323      SNA   0.167000
  6902   H4   -0.176   -1.565   -0.399   H1   323      SNA   0.000000
  6903   C5   -0.173    0.540   -0.860   Cg   323      SNA   0.404000
  6904   H5    0.546    1.363   -0.870   H1   323      SNA   0.000000
  6905   C6   -0.757    0.370   -2.270   Cg   323      SNA   0.280000
  6906  H62    0.017    0.051   -2.968   H1   323      SNA   0.000000
  6907  H61   -1.551   -0.379   -2.270   H1   323      SNA   0.000000
  6908   O6   -1.287    1.627   -2.711   Os   323      SNA  -0.461000
  6909   O5   -1.293    0.897    0.053   Os   323      SNA  -0.611000
  6910   O4    1.671   -1.036   -1.126   Oh   323      SNA  -0.733000
  6911  H4O    2.299   -0.312   -1.077   Ho   323      SNA   0.444000
  6912   O3    1.996    0.381    1.287   Os   323      SNA  -0.467000
  6913   O2    0.094   -0.049    3.385   Os   323      SNA  -0.447000
  6914   C1   -1.605   -0.739    1.147   Cg   324      SNB   0.422000
  6915   H1   -1.204   -0.617    2.155   H2   324      SNB   0.000000
  6916   O5   -1.512    0.540    0.428   Os   324      SNB  -0.507000
  6917   C5   -0.124    1.008    0.103   Cg   324      SNB   0.198000
  6918   H5    0.414    1.170    1.038   H1   324      SNB   0.000000
  6919   C6   -0.196    2.350   -0.651   Cg   324      SNB   0.313000
  6920  H62   -0.725    2.226   -1.596   H1   324      SNB   0.000000
  6921  H61    0.805    2.727   -0.861   H1   324      SNB   0.000000
  6922   O6   -0.896    3.310    0.159   Os   324      SNB  -0.465000
  6923   C4    0.589   -0.098   -0.711   Cg   324      SNB   0.286000
  6924   H4    0.060   -0.232   -1.655   H1   324      SNB   0.000000
  6925   O4    1.949    0.290   -1.017   Oh   324      SNB  -0.707000
  6926  H4O    2.503    0.062   -0.259   Ho   324      SNB   0.430000
  6927   C3    0.592   -1.443    0.051   Cg   324      SNB   0.234000
  6928   H3    1.066   -2.212   -0.562   H1   324      SNB   0.000000
  6929   O3    1.350   -1.305    1.289   Os   324      SNB  -0.420000
  6930   C2   -0.857   -1.867    0.376   Cg   324      SNB   0.301000
  6931   H2   -1.377   -2.056   -0.567   H1   324      SNB   0.000000
  6932   O2   -0.834   -3.113    1.131   Os   324      SNB  -0.473000
  6933   C1   -0.965    1.046    1.518   Cg   325      STA   0.456000
  6934   H1   -1.928    1.059    2.031   H2   325      STA   0.000000
  6935   C2   -0.103   -0.102    2.080   Cg   325      STA   0.245000
  6936   H2    0.250    0.150    3.082   H1   325      STA   0.000000
  6937   C3    1.102   -0.422    1.168   Cg   325      STA   0.124000
  6938   H3    1.786    0.425    1.244   H1   325      STA   0.000000
  6939   C4    0.760   -0.584   -0.328   Cg   325      STA   0.434000
  6940   H4    1.681   -0.678   -0.906   H1   325      STA   0.000000
  6941   C5   -0.034    0.646   -0.817   Cg   325      STA   0.157000
  6942   H5    0.620    1.516   -0.728   H1   325      STA   0.000000
  6943   C6   -0.514    0.568   -2.274   Cg   325      STA   0.304000
  6944  H62    0.323    0.342   -2.935   H1   325      STA   0.000000
  6945  H61   -1.270   -0.209   -2.393   H1   325      STA   0.000000
  6946   O6   -1.072    1.835   -2.646   Os   325      STA  -0.462000
  6947   O5   -1.213    0.860    0.065   Os   325      STA  -0.480000
  6948   O4   -0.034   -1.771   -0.533   Oh   325      STA  -0.731000
  6949  H4O   -0.239   -1.862   -1.466   Ho   325      STA   0.417000
  6950   O3    1.819   -1.571    1.654   Os   325      STA  -0.439000
  6951   O2   -0.969   -1.248    2.187   Os   325      STA  -0.413000
  6952   C1   -1.651    0.190    1.265   Cg   326      STB   0.306000
  6953   H1   -1.406    1.139    1.743   H2   326      STB   0.000000
  6954   O5   -1.479    0.349   -0.197   Os   326      STB  -0.354000
  6955   C5   -0.119    0.772   -0.625   Cg   326      STB   0.031000
  6956   H5    0.119    1.710   -0.119   H1   326      STB   0.000000
  6957   C6   -0.136    1.047   -2.135   Cg   326      STB   0.349000
  6958  H62   -0.486    0.173   -2.685   H1   326      STB   0.000000
  6959  H61    0.865    1.300   -2.484   H1   326      STB   0.000000
  6960   O6   -1.013    2.152   -2.394   Os   326      STB  -0.454000
  6961   C4    0.916   -0.280   -0.160   Cg   326      STB   0.314000
  6962   H4    1.924    0.094   -0.350   H1   326      STB   0.000000
  6963   O4    0.726   -1.491   -0.921   Oh   326      STB  -0.626000
  6964  H4O    0.839   -1.302   -1.855   Ho   326      STB   0.413000
  6965   C3    0.746   -0.566    1.351   Cg   326      STB   0.174000
  6966   H3    1.030    0.345    1.878   H1   326      STB   0.000000
  6967   O3    1.661   -1.590    1.780   Os   326      STB  -0.447000
  6968   C2   -0.696   -0.904    1.790   Cg   326      STB   0.340000
  6969   H2   -0.751   -0.957    2.878   H1   326      STB   0.000000
  6970   O2   -1.088   -2.180    1.239   Os   326      STB  -0.434000
  6971   C1   -1.286    0.926    0.798   Cg   327      TAA   0.448000
  6972   H1   -2.297    0.836    1.199   H2   327      TAA   0.000000
  6973   C2   -0.408   -0.207    1.379   Cg   327      TAA   0.268000
  6974   H2   -0.180   -0.002    2.427   H1   327      TAA   0.000000
  6975   C3    0.895   -0.488    0.603   Cg   327      TAA   0.335000
  6976   H3    1.334   -1.432    0.930   H1   327      TAA   0.000000
  6977   C4    0.651   -0.523   -0.920   Cg   327      TAA   0.245000
  6978   H4    0.055   -1.407   -1.155   H1   327      TAA   0.000000
  6979   C5   -0.097    0.711   -1.434   Cg   327      TAA   0.379000
  6980  H5E   -0.322    0.606   -2.496   H1   327      TAA   0.000000
  6981  H5A    0.500    1.614   -1.297   H1   327      TAA   0.000000
  6982   O5   -1.364    0.840   -0.681   Os   327      TAA  -0.564000
  6983   O4    1.900   -0.639   -1.621   Os   327      TAA  -0.508000
  6984   O3    1.816    0.572    0.930   Os   327      TAA  -0.505000
  6985   O2   -1.196   -1.408    1.338   Os   327      TAA  -0.486000
  6986   C1   -1.557   -0.170    0.846   Cg   328      TAB   0.379000
  6987   H1   -1.200   -0.073    1.873   H2   328      TAB   0.000000
  6988   O5   -1.406    1.122    0.170   Os   328      TAB  -0.529000
  6989   C5    0.001    1.565   -0.001   Cg   328      TAB   0.356000
  6990  H5E    0.010    2.503   -0.557   H1   328      TAB   0.000000
  6991  H5A    0.440    1.751    0.980   H1   328      TAB   0.000000
  6992   C4    0.809    0.490   -0.764   Cg   328      TAB   0.224000
  6993   H4    0.404    0.413   -1.775   H1   328      TAB   0.000000
  6994   O4    2.206    0.889   -0.878   Os   328      TAB  -0.484000
  6995   C3    0.695   -0.892   -0.070   Cg   328      TAB   0.297000
  6996   H3    1.215   -1.640   -0.670   H1   328      TAB   0.000000
  6997   O3    1.336   -0.836    1.234   Os   328      TAB  -0.455000
  6998   C2   -0.779   -1.311    0.114   Cg   328      TAB   0.300000
  6999   H2   -0.835   -2.227    0.705   H1   328      TAB   0.000000
  7000   O2   -1.338   -1.585   -1.207   Os   328      TAB  -0.476000
  7001   C1   -0.735    1.391   -0.827   Cg   329      TDA   0.398000
  7002   H1   -0.563    2.194   -1.545   H2   329      TDA   0.000000
  7003   C2   -0.244    0.043   -1.436   Cg   329      TDA   0.246000
  7004   H2   -0.908   -0.248   -2.252   H1   329      TDA   0.000000
  7005   C3   -0.241   -1.070   -0.359   Cg   329      TDA   0.184000
  7006   H3   -1.271   -1.221   -0.032   H1   329      TDA   0.000000
  7007   C4    0.608   -0.655    0.864   Cg   329      TDA   0.351000
  7008   H4    1.653   -0.537    0.575   H1   329      TDA   0.000000
  7009   C5    0.077    0.666    1.459   Cg   329      TDA   0.275000
  7010  H5E    0.741    1.013    2.250   H1   329      TDA   0.000000
  7011  H5A   -0.909    0.504    1.899   H1   329      TDA   0.000000
  7012   O5   -0.037    1.730    0.422   Os   329      TDA  -0.487000
  7013   O4    0.511   -1.685    1.875   Os   329      TDA  -0.483000
  7014   O3    0.223   -2.340   -0.907   Os   329      TDA  -0.432000
  7015   O2    1.095    0.215   -1.987   Os   329      TDA  -0.440000
  7016   C1    0.993    0.721    1.312   Cg   330      TDB   0.448000
  7017   H1    1.177    1.668    0.803   H2   330      TDB   0.000000
  7018   O5   -0.452    0.625    1.617   Os   330      TDB  -0.519000
  7019   C5   -1.348    0.687    0.441   Cg   330      TDB   0.275000
  7020  H5E   -2.380    0.564    0.770   H1   330      TDB   0.000000
  7021  H5A   -1.254    1.673   -0.019   H1   330      TDB   0.000000
  7022   C4   -0.976   -0.416   -0.565   Cg   330      TDB   0.335000
  7023   H4   -1.280   -1.387   -0.171   H1   330      TDB   0.000000
  7024   O4   -1.701   -0.147   -1.775   Os   330      TDB  -0.467000
  7025   C3    0.535   -0.417   -0.882   Cg   330      TDB   0.201000
  7026   H3    0.783    0.489   -1.439   H1   330      TDB   0.000000
  7027   O3    0.860   -1.550   -1.709   Os   330      TDB  -0.463000
  7028   C2    1.404   -0.448    0.392   Cg   330      TDB   0.226000
  7029   H2    2.459   -0.369    0.129   H1   330      TDB   0.000000
  7030   O2    1.181   -1.693    1.094   Os   330      TDB  -0.424000
  7031   C1   -0.805    0.893    1.627   Cg   331      TEA   0.480000
  7032   H1   -1.740    0.956    2.187   H2   331      TEA   0.000000
  7033   C2    0.011   -0.315    2.139   Cg   331      TEA   0.179000
  7034   H2    0.428   -0.093    3.123   H1   331      TEA   0.000000
  7035   C3    1.126   -0.793    1.190   Cg   331      TEA   0.328000
  7036   H3    1.501   -1.766    1.512   H1   331      TEA   0.000000
  7037   C4    0.639   -0.877   -0.273   Cg   331      TEA   0.261000
  7038   H4   -0.081   -1.693   -0.346   H1   331      TEA   0.000000
  7039   C5   -0.040    0.418   -0.759   Cg   331      TEA   0.374000
  7040   H5    0.688    1.233   -0.747   H1   331      TEA   0.000000
  7041   C6   -0.653    0.313   -2.162   Cg   331      TEA   0.259000
  7042  H62    0.102    0.010   -2.888   H1   331      TEA   0.000000
  7043  H61   -1.460   -0.421   -2.177   H1   331      TEA   0.000000
  7044   O6   -1.168    1.597   -2.542   Oh   331      TEA  -0.663000
  7045  H6O   -0.455    2.240   -2.542   Ho   331      TEA   0.406000
  7046   O5   -1.136    0.741    0.190   Os   331      TEA  -0.587000
  7047   O4    1.752   -1.197   -1.127   Os   331      TEA  -0.500000
  7048   O3    2.204    0.159    1.298   Os   331      TEA  -0.488000
  7049   O2   -0.912   -1.405    2.298   Os   331      TEA  -0.437000
  7050   C1   -1.444   -0.895    1.028   Cg   332      TEB   0.488000
  7051   H1   -1.068   -0.792    2.046   H2   332      TEB   0.000000
  7052   O5   -1.310    0.392    0.335   Os   332      TEB  -0.532000
  7053   C5    0.104    0.849    0.121   Cg   332      TEB   0.257000
  7054   H5    0.561    1.019    1.098   H1   332      TEB   0.000000
  7055   C6    0.092    2.183   -0.651   Cg   332      TEB   0.278000
  7056  H62   -0.359    2.043   -1.635   H1   332      TEB   0.000000
  7057  H61    1.106    2.556   -0.789   H1   332      TEB   0.000000
  7058   O6   -0.669    3.165    0.076   Oh   332      TEB  -0.677000
  7059  H6O   -1.520    2.776    0.299   Ho   332      TEB   0.408000
  7060   C4    0.900   -0.248   -0.628   Cg   332      TEB   0.320000
  7061   H4    0.492   -0.348   -1.635   H1   332      TEB   0.000000
  7062   O4    2.301    0.133   -0.756   Os   332      TEB  -0.498000
  7063   C3    0.784   -1.619    0.095   Cg   332      TEB   0.315000
  7064   H3    1.307   -2.378   -0.489   H1   332      TEB   0.000000
  7065   O3    1.403   -1.558    1.409   Os   332      TEB  -0.472000
  7066   C2   -0.688   -2.033    0.274   Cg   332      TEB   0.184000
  7067   H2   -0.746   -2.954    0.855   H1   332      TEB   0.000000
  7068   O2   -1.245   -2.293   -1.053   Os   332      TEB  -0.459000
  7069   C1   -0.788    1.313   -1.237   Cg   333      TFA   0.399000
  7070   H1   -0.561    2.171   -1.870   H2   333      TFA   0.000000
  7071   C2   -0.277    0.010   -1.940   Cg   333      TFA   0.456000
  7072   H2    0.789    0.135   -2.134   H1   333      TFA   0.000000
  7073   C3   -0.479   -1.207   -1.001   Cg   333      TFA   0.228000
  7074   H3   -1.542   -1.318   -0.780   H1   333      TFA   0.000000
  7075   C4    0.279   -0.979    0.330   Cg   333      TFA   0.263000
  7076   H4    0.065   -1.807    1.007   H1   333      TFA   0.000000
  7077   C5   -0.157    0.348    1.012   Cg   333      TFA   0.187000
  7078   H5   -1.193    0.220    1.330   H1   333      TFA   0.000000
  7079   C6    0.649    0.736    2.254   Cg   333      TFA   0.065000
  7080  H63    0.637   -0.060    2.999   Hc   333      TFA   0.000000
  7081  H62    0.237    1.628    2.728   Hc   333      TFA   0.000000
  7082  H61    1.692    0.948    2.015   Hc   333      TFA   0.000000
  7083   O5   -0.115    1.498    0.059   Os   333      TFA  -0.494000
  7084   O4    1.707   -0.967    0.071   Os   333      TFA  -0.486000
  7085   O3   -0.022   -2.458   -1.608   Os   333      TFA  -0.461000
  7086   O2   -0.922   -0.209   -3.235   Os   333      TFA  -0.545000
  7087   C1   -1.503    0.406    1.239   Cg   334      TFB   0.418000
  7088   H1   -1.203    1.373    1.646   H2   334      TFB   0.000000
  7089   O5   -1.407    0.468   -0.236   Os   334      TFB  -0.442000
  7090   C5   -0.047    0.633   -0.799   Cg   334      TFB   0.106000
  7091   H5    0.386    1.547   -0.388   H1   334      TFB   0.000000
  7092   C6   -0.177    0.827   -2.312   Cg   334      TFB   0.092000
  7093  H63    0.801    0.954   -2.779   Hc   334      TFB   0.000000
  7094  H62   -0.664   -0.022   -2.794   Hc   334      TFB   0.000000
  7095  H61   -0.765    1.715   -2.546   Hc   334      TFB   0.000000
  7096   C4    0.825   -0.558   -0.350   Cg   334      TFB   0.229000
  7097   H4    1.844   -0.431   -0.717   H1   334      TFB   0.000000
  7098   O4    0.274   -1.772   -0.909   Os   334      TFB  -0.430000
  7099   C3    0.827   -0.648    1.189   Cg   334      TFB   0.255000
  7100   H3    1.335    0.239    1.575   H1   334      TFB   0.000000
  7101   O3    1.584   -1.803    1.597   Os   334      TFB  -0.443000
  7102   C2   -0.592   -0.714    1.788   Cg   334      TFB   0.346000
  7103   H2   -1.036   -1.691    1.587   H1   334      TFB   0.000000
  7104   O2   -0.479   -0.525    3.210   Os   334      TFB  -0.519000
  7105   C1   -0.796   -0.744    1.742   Cg   335      TGA   0.509000
  7106   H1   -1.705   -1.105    2.223   H2   335      TGA   0.000000
  7107   C2   -0.080   -1.922    1.020   Cg   335      TGA   0.246000
  7108   H2   -0.818   -2.418    0.387   H1   335      TGA   0.000000
  7109   C3    1.070   -1.418    0.123   Cg   335      TGA   0.286000
  7110   H3    1.879   -1.042    0.753   H1   335      TGA   0.000000
  7111   C4    0.607   -0.306   -0.847   Cg   335      TGA   0.254000
  7112   H4   -0.100   -0.723   -1.568   H1   335      TGA   0.000000
  7113   C5   -0.064    0.856   -0.086   Cg   335      TGA   0.283000
  7114   H5    0.689    1.333    0.545   H1   335      TGA   0.000000
  7115   C6   -0.653    1.925   -1.036   Cg   335      TGA   0.276000
  7116  H62    0.060    2.177   -1.821   H1   335      TGA   0.000000
  7117  H61   -1.557    1.543   -1.513   H1   335      TGA   0.000000
  7118   O6   -0.969    3.135   -0.315   Oh   335      TGA  -0.682000
  7119  H6O   -0.167    3.637   -0.157   Ho   335      TGA   0.418000
  7120   O5   -1.148    0.317    0.799   Os   335      TGA  -0.574000
  7121   O4    1.761    0.203   -1.565   Os   335      TGA  -0.468000
  7122   O3    1.570   -2.536   -0.658   Os   335      TGA  -0.466000
  7123   O2    0.423   -2.911    1.976   Os   335      TGA  -0.470000
  7124   C1   -1.372   -0.966    1.053   Cg   336      TGB   0.384000
  7125   H1   -0.978   -0.854    2.064   H2   336      TGB   0.000000
  7126   O5   -1.312    0.327    0.366   Os   336      TGB  -0.471000
  7127   C5    0.064    0.864    0.135   Cg   336      TGB   0.225000
  7128   H5    0.548    0.997    1.105   H1   336      TGB   0.000000
  7129   C6   -0.034    2.237   -0.557   Cg   336      TGB   0.282000
  7130  H62   -0.503    2.133   -1.537   H1   336      TGB   0.000000
  7131  H61    0.957    2.669   -0.696   H1   336      TGB   0.000000
  7132   O6   -0.825    3.133    0.246   Oh   336      TGB  -0.688000
  7133  H6O   -1.665    2.705    0.438   Ho   336      TGB   0.424000
  7134   C4    0.868   -0.160   -0.694   Cg   336      TGB   0.276000
  7135   H4    0.439   -0.230   -1.696   H1   336      TGB   0.000000
  7136   O4    2.237    0.298   -0.805   Os   336      TGB  -0.468000
  7137   C3    0.852   -1.558   -0.030   Cg   336      TGB   0.284000
  7138   H3    1.411   -1.515    0.907   H1   336      TGB   0.000000
  7139   O3    1.509   -2.505   -0.916   Os   336      TGB  -0.471000
  7140   C2   -0.584   -2.046    0.263   Cg   336      TGB   0.310000
  7141   H2   -1.097   -2.249   -0.679   H1   336      TGB   0.000000
  7142   O2   -0.516   -3.282    1.035   Os   336      TGB  -0.475000
  7143   C1   -0.650    1.404   -1.248   Cg   337      THA   0.394000
  7144   H1   -0.309    2.249   -1.846   H2   337      THA   0.000000
  7145   C2   -0.290    0.080   -1.978   Cg   337      THA   0.248000
  7146   H2   -0.916   -0.029   -2.865   H1   337      THA   0.000000
  7147   C3   -0.505   -1.133   -1.046   Cg   337      THA   0.236000
  7148   H3   -1.574   -1.228   -0.846   H1   337      THA   0.000000
  7149   C4    0.241   -0.981    0.299   Cg   337      THA   0.187000
  7150   H4    1.318   -0.978    0.123   H1   337      THA   0.000000
  7151   C5   -0.179    0.333    1.002   Cg   337      THA   0.279000
  7152   H5   -1.231    0.261    1.287   H1   337      THA   0.000000
  7153   C6    0.638    0.653    2.256   Cg   337      THA   0.023000
  7154  H63    0.531   -0.124    3.012   Hc   337      THA   0.000000
  7155  H62    0.314    1.590    2.711   Hc   337      THA   0.000000
  7156  H61    1.701    0.748    2.030   Hc   337      THA   0.000000
  7157   O5   -0.027    1.492    0.085   Os   337      THA  -0.461000
  7158   O4   -0.092   -2.116    1.149   Os   337      THA  -0.433000
  7159   O3   -0.070   -2.347   -1.713   Os   337      THA  -0.418000
  7160   O2    1.100    0.126   -2.412   Os   337      THA  -0.443000
  7161   C1   -1.883   -0.323   -0.607   Cg   338      THB   0.381000
  7162   H1   -1.671   -1.070   -1.373   H2   338      THB   0.000000
  7163   O5   -1.182   -0.711    0.636   Os   338      THB  -0.427000
  7164   C5    0.292   -0.843    0.530   Cg   338      THB   0.172000
  7165   H5    0.508   -1.652   -0.171   H1   338      THB   0.000000
  7166  C6M    0.806   -1.248    1.913   Cg   338      THB   0.039000
  7167  H1M    0.340   -2.173    2.254   Hc   338      THB   0.000000
  7168  H2M    0.600   -0.481    2.661   Hc   338      THB   0.000000
  7169  H3M    1.884   -1.416    1.904   Hc   338      THB   0.000000
  7170   C4    0.896    0.475   -0.010   Cg   338      THB   0.388000
  7171   H4    0.870    1.240    0.768   H1   338      THB   0.000000
  7172   O4    2.263    0.212   -0.370   Os   338      THB  -0.490000
  7173   C3    0.159    0.979   -1.269   Cg   338      THB   0.182000
  7174   H3    0.359    0.296   -2.097   H1   338      THB   0.000000
  7175   O3    0.654    2.280   -1.637   Os   338      THB  -0.441000
  7176   C2   -1.369    1.055   -1.073   Cg   338      THB   0.243000
  7177   H2   -1.854    1.343   -2.006   H1   338      THB   0.000000
  7178   O2   -1.673    2.036   -0.055   Os   338      THB  -0.435000
  7179   C1   -0.901    0.847    1.584   Cg   339      TKA   0.473000
  7180   H1   -1.835    0.872    2.146   H2   339      TKA   0.000000
  7181   C2   -0.041   -0.330    2.091   Cg   339      TKA   0.281000
  7182   H2   -0.690   -1.207    2.092   H1   339      TKA   0.000000
  7183   C3    1.178   -0.682    1.211   Cg   339      TKA   0.354000
  7184   H3    1.629   -1.613    1.557   H1   339      TKA   0.000000
  7185   C4    0.777   -0.806   -0.272   Cg   339      TKA   0.196000
  7186   H4    1.672   -0.893   -0.889   H1   339      TKA   0.000000
  7187   C5   -0.078    0.385   -0.771   Cg   339      TKA   0.301000
  7188   H5    0.558    1.273   -0.751   H1   339      TKA   0.000000
  7189   C6   -0.622    0.237   -2.199   Cg   339      TKA   0.287000
  7190  H62    0.189    0.004   -2.889   H1   339      TKA   0.000000
  7191  H61   -1.362   -0.563   -2.252   H1   339      TKA   0.000000
  7192   O6   -1.230    1.473   -2.595   Oh   339      TKA  -0.691000
  7193  H6O   -0.577    2.176   -2.562   Ho   339      TKA   0.422000
  7194   O5   -1.219    0.614    0.156   Os   339      TKA  -0.540000
  7195   O4    0.022   -2.025   -0.412   Os   339      TKA  -0.486000
  7196   O3    2.171    0.357    1.298   Os   339      TKA  -0.502000
  7197   O2    0.358   -0.120    3.458   Os   339      TKA  -0.483000
  7198   C1   -1.390   -0.859    1.110   Cg   340      TKB   0.449000
  7199   H1   -0.996   -0.709    2.116   H2   340      TKB   0.000000
  7200   O5   -1.299    0.393    0.355   Os   340      TKB  -0.514000
  7201   C5    0.096    0.851    0.053   Cg   340      TKB   0.303000
  7202   H5    0.598    1.047    1.003   H1   340      TKB   0.000000
  7203   C6    0.042    2.179   -0.729   Cg   340      TKB   0.259000
  7204  H62   -0.525    2.057   -1.651   H1   340      TKB   0.000000
  7205  H61    1.051    2.503   -0.987   H1   340      TKB   0.000000
  7206   O6   -0.582    3.202    0.072   Oh   340      TKB  -0.670000
  7207  H6O   -1.462    2.899    0.316   Ho   340      TKB   0.416000
  7208   C4    0.895   -0.257   -0.686   Cg   340      TKB   0.217000
  7209   H4    1.937    0.055   -0.768   H1   340      TKB   0.000000
  7210   O4    0.386   -0.452   -2.035   Os   340      TKB  -0.469000
  7211   C3    0.818   -1.599    0.074   Cg   340      TKB   0.253000
  7212   H3    1.295   -2.380   -0.521   H1   340      TKB   0.000000
  7213   O3    1.568   -1.459    1.310   Os   340      TKB  -0.462000
  7214   C2   -0.642   -2.011    0.376   Cg   340      TKB   0.308000
  7215   H2   -1.147   -2.215   -0.569   H1   340      TKB   0.000000
  7216   O2   -0.644   -3.245    1.161   Os   340      TKB  -0.478000
  7217   C1   -0.964    0.815    1.555   Cg   341      TLA   0.465000
  7218   H1   -1.915    0.828    2.088   H2   341      TLA   0.000000
  7219   C2   -0.100   -0.350    2.092   Cg   341      TLA   0.339000
  7220   H2   -0.718   -1.249    2.105   H1   341      TLA   0.000000
  7221   C3    1.145   -0.609    1.222   Cg   341      TLA   0.253000
  7222   H3    1.822    0.242    1.302   H1   341      TLA   0.000000
  7223   C4    0.773   -0.802   -0.264   Cg   341      TLA   0.204000
  7224   H4    1.680   -0.903   -0.862   H1   341      TLA   0.000000
  7225   C5   -0.053    0.399   -0.773   Cg   341      TLA   0.216000
  7226   H5    0.580    1.286   -0.704   H1   341      TLA   0.000000
  7227   C6   -0.538    0.283   -2.225   Cg   341      TLA   0.308000
  7228  H62    0.301    0.069   -2.887   H1   341      TLA   0.000000
  7229  H61   -1.272   -0.517   -2.328   H1   341      TLA   0.000000
  7230   O6   -1.134    1.527   -2.616   Oh   341      TLA  -0.684000
  7231  H6O   -0.486    2.231   -2.539   Ho   341      TLA   0.418000
  7232   O5   -1.234    0.596    0.115   Os   341      TLA  -0.527000
  7233   O4   -0.022   -1.999   -0.418   Os   341      TLA  -0.431000
  7234   O3    1.840   -1.780    1.690   Os   341      TLA  -0.462000
  7235   O2    0.295   -0.067    3.448   Os   341      TLA  -0.487000
  7236   C1   -1.373   -0.947    1.074   Cg   342      TLB   0.374000
  7237   H1   -0.980   -0.838    2.086   H2   342      TLB   0.000000
  7238   O5   -1.296    0.354    0.396   Os   342      TLB  -0.402000
  7239   C5    0.080    0.863    0.108   Cg   342      TLB   0.140000
  7240   H5    0.596    0.999    1.061   H1   342      TLB   0.000000
  7241   C6   -0.007    2.235   -0.584   Cg   342      TLB   0.319000
  7242  H62   -0.598    2.171   -1.499   H1   342      TLB   0.000000
  7243  H61    0.990    2.593   -0.841   H1   342      TLB   0.000000
  7244   O6   -0.623    3.174    0.312   Oh   342      TLB  -0.693000
  7245  H6O   -1.491    2.834    0.543   Ho   342      TLB   0.419000
  7246   C4    0.873   -0.181   -0.709   Cg   342      TLB   0.203000
  7247   H4    1.905    0.154   -0.819   H1   342      TLB   0.000000
  7248   O4    0.290   -0.311   -2.029   Os   342      TLB  -0.421000
  7249   C3    0.855   -1.554    0.003   Cg   342      TLB   0.259000
  7250   H3    1.391   -1.451    0.950   H1   342      TLB   0.000000
  7251   O3    1.574   -2.522   -0.810   Os   342      TLB  -0.455000
  7252   C2   -0.583   -2.042    0.298   Cg   342      TLB   0.357000
  7253   H2   -1.094   -2.268   -0.640   H1   342      TLB   0.000000
  7254   O2   -0.508   -3.260    1.098   Os   342      TLB  -0.488000
  7255   C1   -0.937   -0.719    1.696   Cg   343      TMA   0.433000
  7256   H1   -1.902   -1.036    2.092   H2   343      TMA   0.000000
  7257   C2   -0.231   -1.925    1.014   Cg   343      TMA   0.245000
  7258   H2    0.073   -2.644    1.777   H1   343      TMA   0.000000
  7259   C3    1.016   -1.454    0.233   Cg   343      TMA   0.252000
  7260   H3    1.743   -1.059    0.945   H1   343      TMA   0.000000
  7261   C4    0.664   -0.341   -0.785   Cg   343      TMA   0.326000
  7262   H4   -0.008   -0.736   -1.549   H1   343      TMA   0.000000
  7263   C5    0.002    0.860   -0.071   Cg   343      TMA   0.276000
  7264   H5    0.741    1.312    0.593   H1   343      TMA   0.000000
  7265   C6   -0.485    1.934   -1.068   Cg   343      TMA   0.266000
  7266  H62    0.289    2.152   -1.804   H1   343      TMA   0.000000
  7267  H61   -1.366    1.576   -1.602   H1   343      TMA   0.000000
  7268   O6   -0.810    3.163   -0.384   Oh   343      TMA  -0.688000
  7269  H6O   -0.005    3.602   -0.099   Ho   343      TMA   0.422000
  7270   O5   -1.151    0.398    0.765   Os   343      TMA  -0.507000
  7271   O4    1.887    0.110   -1.424   Os   343      TMA  -0.489000
  7272   O3    1.633   -2.596   -0.438   Os   343      TMA  -0.459000
  7273   O2   -1.156   -2.597    0.108   Os   343      TMA  -0.465000
  7274   C1   -1.373   -0.927    1.123   Cg   344      TMB   0.314000
  7275   H1   -0.892   -0.884    2.101   H2   344      TMB   0.000000
  7276   O5   -1.265    0.394    0.486   Os   344      TMB  -0.393000
  7277   C5    0.124    0.852    0.163   Cg   344      TMB   0.206000
  7278   H5    0.648    1.019    1.107   H1   344      TMB   0.000000
  7279   C6    0.044    2.188   -0.597   Cg   344      TMB   0.273000
  7280  H62   -0.478    2.052   -1.545   H1   344      TMB   0.000000
  7281  H61    1.044    2.569   -0.808   H1   344      TMB   0.000000
  7282   O6   -0.665    3.159    0.193   Oh   344      TMB  -0.680000
  7283  H6O   -1.528    2.798    0.416   Ho   344      TMB   0.419000
  7284   C4    0.888   -0.228   -0.644   Cg   344      TMB   0.349000
  7285   H4    0.478   -0.292   -1.654   H1   344      TMB   0.000000
  7286   O4    2.281    0.169   -0.734   Os   344      TMB  -0.497000
  7287   C3    0.782   -1.607    0.061   Cg   344      TMB   0.263000
  7288   H3    1.232   -1.526    1.053   H1   344      TMB   0.000000
  7289   O3    1.519   -2.643   -0.653   Os   344      TMB  -0.456000
  7290   C2   -0.699   -2.015    0.242   Cg   344      TMB   0.241000
  7291   H2   -0.763   -2.984    0.738   H1   344      TMB   0.000000
  7292   O2   -1.376   -2.094   -1.048   Os   344      TMB  -0.427000
  7293   C1   -0.851    0.932    1.582   Cg   345      TNA   0.478000
  7294   H1   -1.798    1.025    2.114   H2   345      TNA   0.000000
  7295   C2   -0.115   -0.329    2.086   Cg   345      TNA   0.228000
  7296   H2   -0.831   -1.150    2.035   H1   345      TNA   0.000000
  7297   C3    1.107   -0.749    1.246   Cg   345      TNA   0.330000
  7298   H3    1.490   -1.708    1.599   H1   345      TNA   0.000000
  7299   C4    0.673   -0.865   -0.230   Cg   345      TNA   0.167000
  7300   H4   -0.024   -1.701   -0.312   H1   345      TNA   0.000000
  7301   C5   -0.021    0.404   -0.774   Cg   345      TNA   0.404000
  7302   H5    0.697    1.226   -0.783   H1   345      TNA   0.000000
  7303   C6   -0.605    0.233   -2.183   Cg   345      TNA   0.280000
  7304  H62    0.169   -0.085   -2.882   H1   345      TNA   0.000000
  7305  H61   -1.399   -0.515   -2.183   H1   345      TNA   0.000000
  7306   O6   -1.135    1.490   -2.624   Oh   345      TNA  -0.663000
  7307  H6O   -0.434    2.146   -2.640   Ho   345      TNA   0.396000
  7308   O5   -1.141    0.761    0.140   Os   345      TNA  -0.611000
  7309   O4    1.823   -1.173   -1.039   Os   345      TNA  -0.483000
  7310   O3    2.148    0.244    1.374   Os   345      TNA  -0.467000
  7311   O2    0.246   -0.186    3.472   Os   345      TNA  -0.447000
  7312   C1   -1.384   -0.887    1.108   Cg   346      TNB   0.422000
  7313   H1   -0.983   -0.766    2.116   H2   346      TNB   0.000000
  7314   O5   -1.291    0.391    0.389   Os   346      TNB  -0.507000
  7315   C5    0.097    0.859    0.064   Cg   346      TNB   0.198000
  7316   H5    0.635    1.021    0.999   H1   346      TNB   0.000000
  7317   C6    0.025    2.201   -0.690   Cg   346      TNB   0.313000
  7318  H62   -0.504    2.077   -1.635   H1   346      TNB   0.000000
  7319  H61    1.026    2.578   -0.900   H1   346      TNB   0.000000
  7320   O6   -0.675    3.161    0.120   Oh   346      TNB  -0.689000
  7321  H6O   -1.477    2.740    0.444   Ho   346      TNB   0.418000
  7322   C4    0.810   -0.247   -0.750   Cg   346      TNB   0.286000
  7323   H4    0.281   -0.381   -1.694   H1   346      TNB   0.000000
  7324   O4    2.171    0.141   -1.056   Os   346      TNB  -0.471000
  7325   C3    0.813   -1.592    0.012   Cg   346      TNB   0.234000
  7326   H3    1.287   -2.361   -0.601   H1   346      TNB   0.000000
  7327   O3    1.571   -1.454    1.250   Os   346      TNB  -0.420000
  7328   C2   -0.636   -2.016    0.336   Cg   346      TNB   0.301000
  7329   H2   -1.156   -2.205   -0.606   H1   346      TNB   0.000000
  7330   O2   -0.613   -3.262    1.092   Os   346      TNB  -0.473000
  7331   C1   -0.811   -0.376    1.745   Cg   347      TOA   0.305000
  7332   H1   -1.732   -0.716    2.219   H2   347      TOA   0.000000
  7333   C2   -0.159   -1.568    0.974   Cg   347      TOA   0.413000
  7334   H2   -0.923   -2.061    0.370   H1   347      TOA   0.000000
  7335   C3    0.983   -1.073    0.053   Cg   347      TOA   0.251000
  7336   H3    1.755   -0.623    0.679   H1   347      TOA   0.000000
  7337   C4    0.456    0.016   -0.917   Cg   347      TOA   0.267000
  7338   H4    1.264    0.338   -1.576   H1   347      TOA   0.000000
  7339   C5   -0.064    1.222   -0.113   Cg   347      TOA   0.054000
  7340   H5    0.759    1.634    0.475   H1   347      TOA   0.000000
  7341   C6   -0.489    2.306   -1.160    C   347      TOA   0.896000
  7342  O6A    0.299    3.264   -1.325   O2   347      TOA  -0.822000
  7343  O6B   -1.533    2.087   -1.822   O2   347      TOA  -0.822000
  7344   O5   -1.132    0.749    0.852   Os   347      TOA  -0.424000
  7345   O4   -0.645   -0.477   -1.730   Os   347      TOA  -0.469000
  7346   O3    1.615   -2.178   -0.663   Os   347      TOA  -0.503000
  7347   O2    0.355   -2.543    1.938   Os   347      TOA  -0.534000
  7348   C1   -1.500   -0.615    1.124   Cg   348      TOB   0.301000
  7349   H1   -1.090   -0.518    2.130   H2   348      TOB   0.000000
  7350   O5   -1.413    0.682    0.456   Os   348      TOB  -0.414000
  7351   C5   -0.029    1.165    0.107   Cg   348      TOB   0.049000
  7352   H5    0.522    1.229    1.047   H1   348      TOB   0.000000
  7353   C6    0.127    2.591   -0.541    C   348      TOB   0.838000
  7354  O6B    1.289    2.919   -0.886   O2   348      TOB  -0.794000
  7355  O6A   -0.872    3.347   -0.580   O2   348      TOB  -0.794000
  7356   C4    0.674    0.106   -0.759   Cg   348      TOB   0.260000
  7357   H4    1.705    0.406   -0.948   H1   348      TOB   0.000000
  7358   O4   -0.011   -0.016   -2.032   Os   348      TOB  -0.453000
  7359   C3    0.686   -1.269   -0.047   Cg   348      TOB   0.259000
  7360   H3    1.270   -1.170    0.870   H1   348      TOB   0.000000
  7361   O3    1.375   -2.236   -0.907   Os   348      TOB  -0.498000
  7362   C2   -0.746   -1.730    0.337   Cg   348      TOB   0.383000
  7363   H2   -1.303   -1.980   -0.568   H1   348      TOB   0.000000
  7364   O2   -0.685   -2.910    1.194   Os   348      TOB  -0.525000
  7365   C1   -0.750    1.328   -1.242   Cg   349      TQA   0.465000
  7366   H1   -0.514    2.174   -1.887   H1   349      TQA   0.000000
  7367   C2   -0.363    0.000   -1.956   Cg   349      TQA   0.281000
  7368   H2    0.678    0.084   -2.271   H1   349      TQA   0.000000
  7369   C3   -0.484   -1.201   -0.984   Cg   349      TQA   0.312000
  7370   H3   -1.538   -1.381   -0.763   H1   349      TQA   0.000000
  7371   C4    0.288   -0.961    0.339   Cg   349      TQA   0.208000
  7372   H4    1.360   -0.947    0.130   H1   349      TQA   0.000000
  7373   C5   -0.114    0.375    1.006   Cg   349      TQA   0.234000
  7374   H5   -1.150    0.304    1.345   H1   349      TQA   0.000000
  7375   C6    0.758    0.764    2.202   Cg   349      TQA   0.060000
  7376  H63    1.808    0.858    1.922   Hc   349      TQA   0.000000
  7377  H62    0.696    0.022    3.000   Hc   349      TQA   0.000000
  7378  H61    0.445    1.718    2.627   Hc   349      TQA   0.000000
  7379   O5   -0.021    1.486    0.021   Os   349      TQA  -0.559000
  7380   O4    0.007   -2.052    1.262   Os   349      TQA  -0.455000
  7381   O3    0.074   -2.393   -1.595   Os   349      TQA  -0.467000
  7382   O2   -1.179   -0.177   -3.158   Os   349      TQA  -0.467000
  7383   C1   -1.388   -0.699    1.231   Cg   350      TQB   0.391000
  7384   H1   -0.920   -0.523    2.201   H1   350      TQB   0.000000
  7385   O5   -1.362    0.532    0.445   Os   350      TQB  -0.535000
  7386   C5   -0.008    1.035    0.095   Cg   350      TQB   0.271000
  7387   H5    0.528    1.250    1.021   H1   350      TQB   0.000000
  7388   C6   -0.197    2.345   -0.672   Cg   350      TQB   0.048000
  7389  H63   -0.735    2.191   -1.608   Hc   350      TQB   0.000000
  7390  H62    0.761    2.807   -0.916   Hc   350      TQB   0.000000
  7391  H61   -0.761    3.070   -0.084   Hc   350      TQB   0.000000
  7392   C4    0.755   -0.055   -0.696   Cg   350      TQB   0.250000
  7393   H4    0.290   -0.181   -1.676   H1   350      TQB   0.000000
  7394   O4    2.129    0.375   -0.882   Os   350      TQB  -0.486000
  7395   C3    0.745   -1.410    0.055   Cg   350      TQB   0.300000
  7396   H3    1.359   -1.323    0.953   H1   350      TQB   0.000000
  7397   O3    1.329   -2.426   -0.806   Os   350      TQB  -0.463000
  7398   C2   -0.680   -1.850    0.464   Cg   350      TQB   0.323000
  7399   H2   -1.256   -2.096   -0.430   H1   350      TQB   0.000000
  7400   O2   -0.589   -3.040    1.306   Os   350      TQB  -0.487000
  7401   C1   -1.309    0.939    0.737   Cg   351      TRA   0.488000
  7402   H1   -2.344    0.889    1.077   H2   351      TRA   0.000000
  7403   C2   -0.548   -0.299    1.267   Cg   351      TRA   0.253000
  7404   H2   -1.152   -1.170    1.007   H1   351      TRA   0.000000
  7405   C3    0.847   -0.525    0.650   Cg   351      TRA   0.345000
  7406   H3    1.255   -1.480    0.984   H1   351      TRA   0.000000
  7407   C4    0.705   -0.518   -0.885   Cg   351      TRA   0.122000
  7408   H4    0.118   -1.389   -1.181   H1   351      TRA   0.000000
  7409   C5    0.006    0.740   -1.426   Cg   351      TRA   0.377000
  7410  H5E   -0.159    0.650   -2.500   H1   351      TRA   0.000000
  7411  H5A    0.616    1.627   -1.249   H1   351      TRA   0.000000
  7412   O5   -1.301    0.903   -0.746   Os   351      TRA  -0.561000
  7413   O4    1.999   -0.631   -1.501   Os   351      TRA  -0.438000
  7414   O3    1.738    0.535    1.063   Os   351      TRA  -0.488000
  7415   O2   -0.470   -0.271    2.704   Os   351      TRA  -0.486000
  7416   C1   -1.549   -0.224    0.845   Cg   352      TRB   0.481000
  7417   H1   -1.220   -0.149    1.882   H2   352      TRB   0.000000
  7418   O5   -1.436    1.087    0.190   Os   352      TRB  -0.576000
  7419   C5   -0.047    1.576   -0.024   Cg   352      TRB   0.335000
  7420  H5E   -0.083    2.505   -0.592   H1   352      TRB   0.000000
  7421  H5A    0.410    1.791    0.943   H1   352      TRB   0.000000
  7422   C4    0.774    0.514   -0.796   Cg   352      TRB   0.236000
  7423   H4    0.338    0.395   -1.789   H1   352      TRB   0.000000
  7424   O4    2.147    0.957   -0.967   Os   352      TRB  -0.478000
  7425   C3    0.737   -0.851   -0.065   Cg   352      TRB   0.203000
  7426   H3    1.303   -1.588   -0.636   H1   352      TRB   0.000000
  7427   O3    1.354   -0.694    1.248   Os   352      TRB  -0.462000
  7428   C2   -0.740   -1.306    0.059   Cg   352      TRB   0.385000
  7429   H2   -1.157   -1.377   -0.948   H1   352      TRB   0.000000
  7430   O2   -0.830   -2.636    0.651   Os   352      TRB  -0.512000
  7431   C1   -0.957    0.816    1.575   Cg   353      TTA   0.456000
  7432   H1   -1.919    0.828    2.088   H2   353      TTA   0.000000
  7433   C2   -0.094   -0.332    2.137   Cg   353      TTA   0.245000
  7434   H2    0.258   -0.081    3.139   H1   353      TTA   0.000000
  7435   C3    1.111   -0.652    1.225   Cg   353      TTA   0.124000
  7436   H3    1.795    0.194    1.301   H1   353      TTA   0.000000
  7437   C4    0.769   -0.814   -0.271   Cg   353      TTA   0.434000
  7438   H4    1.689   -0.908   -0.849   H1   353      TTA   0.000000
  7439   C5   -0.026    0.415   -0.760   Cg   353      TTA   0.157000
  7440   H5    0.629    1.285   -0.671   H1   353      TTA   0.000000
  7441   C6   -0.505    0.337   -2.216   Cg   353      TTA   0.304000
  7442  H62    0.332    0.111   -2.877   H1   353      TTA   0.000000
  7443  H61   -1.261   -0.440   -2.336   H1   353      TTA   0.000000
  7444   O6   -1.063    1.604   -2.589   Oh   353      TTA  -0.669000
  7445  H6O   -0.395    2.288   -2.497   Ho   353      TTA   0.401000
  7446   O5   -1.205    0.630    0.122   Os   353      TTA  -0.480000
  7447   O4   -0.026   -2.001   -0.476   Os   353      TTA  -0.508000
  7448   O3    1.828   -1.802    1.711   Os   353      TTA  -0.439000
  7449   O2   -0.960   -1.478    2.244   Os   353      TTA  -0.413000
  7450   C1   -1.507    0.019    1.277   Cg   354      TTB   0.306000
  7451   H1   -1.262    0.969    1.755   H2   354      TTB   0.000000
  7452   O5   -1.335    0.178   -0.185   Os   354      TTB  -0.354000
  7453   C5    0.025    0.601   -0.613   Cg   354      TTB   0.031000
  7454   H5    0.263    1.540   -0.107   H1   354      TTB   0.000000
  7455   C6    0.007    0.877   -2.123   Cg   354      TTB   0.349000
  7456  H62   -0.342    0.002   -2.673   H1   354      TTB   0.000000
  7457  H61    1.009    1.129   -2.472   H1   354      TTB   0.000000
  7458   O6   -0.869    1.981   -2.382   Oh   354      TTB  -0.666000
  7459  H6O   -1.752    1.768   -2.071   Ho   354      TTB   0.406000
  7460   C4    1.060   -0.450   -0.148   Cg   354      TTB   0.314000
  7461   H4    2.068   -0.077   -0.338   H1   354      TTB   0.000000
  7462   O4    0.870   -1.661   -0.909   Os   354      TTB  -0.407000
  7463   C3    0.890   -0.737    1.363   Cg   354      TTB   0.174000
  7464   H3    1.174    0.175    1.890   H1   354      TTB   0.000000
  7465   O3    1.805   -1.761    1.792   Os   354      TTB  -0.447000
  7466   C2   -0.552   -1.075    1.802   Cg   354      TTB   0.340000
  7467   H2   -0.607   -1.128    2.890   H1   354      TTB   0.000000
  7468   O2   -0.944   -2.351    1.251   Os   354      TTB  -0.434000
  7469   C1   -1.854    0.277    0.163   Cg   355      TUA   0.363000
  7470   H1   -1.829    1.167   -0.466   H2   355      TUA   0.000000
  7471   C2   -1.384   -0.977   -0.636   Cg   355      TUA   0.259000
  7472   H2   -1.661   -1.872   -0.076   H1   355      TUA   0.000000
  7473   C3    0.160   -0.960   -0.821   Cg   355      TUA   0.417000
  7474   H3    0.417   -0.199   -1.561   H1   355      TUA   0.000000
  7475   C4    0.937   -0.658    0.487   Cg   355      TUA   0.223000
  7476   H4    0.747   -1.467    1.196   H1   355      TUA   0.000000
  7477   C5    0.442    0.661    1.112   Cg   355      TUA   0.232000
  7478   H5    0.912    0.756    2.092   H1   355      TUA   0.000000
  7479   C6    0.942    1.919    0.276    C   355      TUA   0.697000
  7480  O6A    0.085    2.726   -0.151   O2   355      TUA  -0.757000
  7481  O6B    2.172    1.999    0.043   O2   355      TUA  -0.757000
  7482   O5   -1.032    0.500    1.355   Os   355      TUA  -0.515000
  7483   O4    2.376   -0.610    0.241   Os   355      TUA  -0.508000
  7484   O3    0.626   -2.247   -1.311   Os   355      TUA  -0.548000
  7485   O2   -2.056   -1.015   -1.941   Os   355      TUA  -0.494000
  7486   C1    0.194    0.336    1.819   Cg   356      TUB   0.278000
  7487   H1    0.736    0.633    2.717   H2   356      TUB   0.000000
  7488   O5    0.232    1.454    0.853   Os   356      TUB  -0.430000
  7489   C5   -0.322    1.209   -0.532   Cg   356      TUB   0.194000
  7490   H5   -0.036    2.071   -1.138   H1   356      TUB   0.000000
  7491   C6   -1.894    1.114   -0.669    C   356      TUB   0.750000
  7492  O6B   -2.364    0.810   -1.793   O2   356      TUB  -0.783000
  7493  O6A   -2.578    1.315    0.360   O2   356      TUB  -0.783000
  7494   C4    0.379   -0.030   -1.134   Cg   356      TUB   0.308000
  7495   H4    1.433    0.222   -1.270   H1   356      TUB   0.000000
  7496   O4   -0.156   -0.366   -2.446   Os   356      TUB  -0.517000
  7497   C3    0.300   -1.259   -0.191   Cg   356      TUB   0.286000
  7498   H3   -0.739   -1.574   -0.077   H1   356      TUB   0.000000
  7499   O3    1.063   -2.357   -0.777   Os   356      TUB  -0.528000
  7500   C2    0.902   -0.898    1.185   Cg   356      TUB   0.289000
  7501   H2    1.947   -0.624    1.029   H1   356      TUB   0.000000
  7502   O2    0.901   -2.057    2.065   Os   356      TUB  -0.452000
  7503   C1   -0.686    1.391   -0.839   Cg   357      TXA   0.482000
  7504   H1   -0.535    2.173   -1.583   H2   357      TXA   0.000000
  7505   C2   -0.238    0.023   -1.420   Cg   357      TXA   0.197000
  7506   H2    0.774    0.142   -1.807   H1   357      TXA   0.000000
  7507   C3   -0.219   -1.067   -0.328   Cg   357      TXA   0.359000
  7508   H3   -1.243   -1.294   -0.023   H1   357      TXA   0.000000
  7509   C4    0.611   -0.643    0.907   Cg   357      TXA   0.247000
  7510   H4    1.662   -0.555    0.629   H1   357      TXA   0.000000
  7511   C5    0.122    0.712    1.449   Cg   357      TXA   0.335000
  7512  H5E    0.794    1.063    2.233   H1   357      TXA   0.000000
  7513  H5A   -0.873    0.606    1.884   H1   357      TXA   0.000000
  7514   O5    0.069    1.732    0.367   Os   357      TXA  -0.588000
  7515   O4    0.487   -1.636    1.961   Os   357      TXA  -0.494000
  7516   O3    0.373   -2.264   -0.896   Os   357      TXA  -0.485000
  7517   O2   -1.098   -0.381   -2.534   Os   357      TXA  -0.441000
  7518   C1   -1.455   -0.123    1.046   Cg   358      TXB   0.248000
  7519   H1   -0.989    0.020    2.022   H2   358      TXB   0.000000
  7520   O5   -1.388    1.137    0.299   Os   358      TXB  -0.447000
  7521   C5   -0.022    1.589   -0.055   Cg   358      TXB   0.303000
  7522  H5E   -0.091    2.514   -0.628   H1   358      TXB   0.000000
  7523  H5A    0.533    1.797    0.862   H1   358      TXB   0.000000
  7524   C4    0.689    0.502   -0.883   Cg   358      TXB   0.286000
  7525   H4    0.191    0.406   -1.848   H1   358      TXB   0.000000
  7526   O4    2.058    0.916   -1.103   Os   358      TXB  -0.487000
  7527   C3    0.681   -0.863   -0.156   Cg   358      TXB   0.228000
  7528   H3    1.306   -0.794    0.737   H1   358      TXB   0.000000
  7529   O3    1.249   -1.873   -1.040   Os   358      TXB  -0.449000
  7530   C2   -0.752   -1.270    0.263   Cg   358      TXB   0.425000
  7531   H2   -1.337   -1.513   -0.626   H1   358      TXB   0.000000
  7532   O2   -0.673   -2.446    1.111   Os   358      TXB  -0.495000
  7533   C1   -0.876   -0.358    1.713   Cg   359      TZA   0.398000
  7534   H1   -1.778   -0.689    2.227   H2   359      TZA   0.000000
  7535   C2   -0.199   -1.569    1.021   Cg   359      TZA   0.326000
  7536   H2   -0.960   -2.073    0.422   H1   359      TZA   0.000000
  7537   C3    0.955   -1.143    0.083   Cg   359      TZA   0.300000
  7538   H3    1.796   -0.806    0.693   H1   359      TZA   0.000000
  7539   C4    0.552   -0.003   -0.895   Cg   359      TZA   0.193000
  7540   H4   -0.115   -0.403   -1.660   H1   359      TZA   0.000000
  7541   C5   -0.162    1.180   -0.192   Cg   359      TZA   0.187000
  7542   H5    0.580    1.656    0.453   H1   359      TZA   0.000000
  7543   C6   -0.562    2.327   -1.229    C   359      TZA   0.798000
  7544  O6A    0.245    2.579   -2.161   O2   359      TZA  -0.787000
  7545  O6B   -1.626    2.959   -1.037   O2   359      TZA  -0.787000
  7546   O5   -1.240    0.662    0.737   Os   359      TZA  -0.544000
  7547   O4    1.738    0.529   -1.542   Os   359      TZA  -0.454000
  7548   O3    1.367   -2.327   -0.661   Os   359      TZA  -0.498000
  7549   O2    0.284   -2.522    2.027   Os   359      TZA  -0.520000
  7550   C1   -1.548   -0.556    1.094   Cg   360      TZB   0.251000
  7551   H1   -1.135   -0.420    2.094   H2   360      TZB   0.000000
  7552   O5   -1.423    0.697    0.355   Os   360      TZB  -0.413000
  7553   C5   -0.025    1.172    0.082   Cg   360      TZB   0.075000
  7554   H5    0.465    1.290    1.051   H1   360      TZB   0.000000
  7555   C6    0.125    2.576   -0.637    C   360      TZB   0.893000
  7556  O6B    1.253    2.864   -1.111   O2   360      TZB  -0.818000
  7557  O6A   -0.872    3.332   -0.674   O2   360      TZB  -0.818000
  7558   C4    0.718    0.068   -0.696   Cg   360      TZB   0.267000
  7559   H4    0.288    0.006   -1.698   H1   360      TZB   0.000000
  7560   O4    2.114    0.438   -0.819   Os   360      TZB  -0.498000
  7561   C3    0.634   -1.325   -0.016   Cg   360      TZB   0.266000
  7562   H3    1.231   -1.306    0.898   H1   360      TZB   0.000000
  7563   O3    1.220   -2.295   -0.934   Os   360      TZB  -0.492000
  7564   C2   -0.823   -1.714    0.349   Cg   360      TZB   0.411000
  7565   H2   -1.371   -1.950   -0.565   H1   360      TZB   0.000000
  7566   O2   -0.850   -2.877    1.227   Os   360      TZB  -0.512000
  7567   C1   -0.873    1.052    1.244   Cg   361      UEA   0.480000
  7568   H1   -1.807    1.115    1.804   H2   361      UEA   0.000000
  7569   C2   -0.057   -0.156    1.756   Cg   361      UEA   0.179000
  7570   H2    0.360    0.066    2.740   H1   361      UEA   0.000000
  7571   O2   -0.980   -1.246    1.916   Oh   361      UEA  -0.690000
  7572  H2O   -1.677   -0.989    2.524   Ho   361      UEA   0.447000
  7573   C3    1.059   -0.634    0.807   Cg   361      UEA   0.328000
  7574   H3    1.433   -1.607    1.129   H1   361      UEA   0.000000
  7575   O3    2.136    0.318    0.915   Oh   361      UEA  -0.714000
  7576  H3O    2.436    0.361    1.826   Ho   361      UEA   0.420000
  7577   C4    0.572   -0.717   -0.656   Cg   361      UEA   0.261000
  7578   H4   -0.149   -1.533   -0.729   H1   361      UEA   0.000000
  7579   C5   -0.108    0.578   -1.142   Cg   361      UEA   0.374000
  7580   H5    0.620    1.392   -1.130   H1   361      UEA   0.000000
  7581   C6   -0.720    0.473   -2.545   Cg   361      UEA   0.259000
  7582  H62    0.035    0.170   -3.270   H1   361      UEA   0.000000
  7583  H61   -1.527   -0.261   -2.560   H1   361      UEA   0.000000
  7584   O6   -1.235    1.756   -2.925   Os   361      UEA  -0.451000
  7585   O5   -1.203    0.900   -0.193   Os   361      UEA  -0.587000
  7586   O4    1.684   -1.037   -1.510   Os   361      UEA  -0.500000
  7587   C1   -1.525   -0.573    1.025   Cg   362      UEB   0.488000
  7588   H1   -1.149   -0.470    2.043   H2   362      UEB   0.000000
  7589   O5   -1.391    0.714    0.332   Os   362      UEB  -0.532000
  7590   C5    0.023    1.171    0.118   Cg   362      UEB   0.257000
  7591   H5    0.480    1.341    1.095   H1   362      UEB   0.000000
  7592   C6    0.011    2.505   -0.654   Cg   362      UEB   0.278000
  7593  H62   -0.440    2.365   -1.638   H1   362      UEB   0.000000
  7594  H61    1.026    2.878   -0.792   H1   362      UEB   0.000000
  7595   O6   -0.750    3.487    0.073   Os   362      UEB  -0.463000
  7596   C4    0.819    0.074   -0.631   Cg   362      UEB   0.320000
  7597   H4    0.411   -0.026   -1.638   H1   362      UEB   0.000000
  7598   C3    0.703   -1.297    0.092   Cg   362      UEB   0.315000
  7599   H3    1.226   -2.056   -0.492   H1   362      UEB   0.000000
  7600   O3    1.322   -1.236    1.406   Oh   362      UEB  -0.681000
  7601  H3O    2.205   -0.859    1.310   Ho   362      UEB   0.403000
  7602   C2   -0.769   -1.711    0.271   Cg   362      UEB   0.184000
  7603   H2   -0.827   -2.632    0.853   H1   362      UEB   0.000000
  7604   O2   -1.326   -1.972   -1.056   Oh   362      UEB  -0.697000
  7605  H2O   -2.269   -2.158   -0.958   Ho   362      UEB   0.432000
  7606   O4    2.220    0.455   -0.759   Os   362      UEB  -0.498000
  7607   C1   -0.926   -0.275    1.600   Cg   363      UGA   0.509000
  7608   H1   -1.835   -0.636    2.081   H2   363      UGA   0.000000
  7609   C2   -0.210   -1.453    0.878   Cg   363      UGA   0.246000
  7610   H2   -0.948   -1.949    0.245   H1   363      UGA   0.000000
  7611   O2    0.294   -2.442    1.834   Oh   363      UGA  -0.713000
  7612  H2O    0.666   -1.983    2.600   Ho   363      UGA   0.437000
  7613   C3    0.940   -0.949   -0.019   Cg   363      UGA   0.286000
  7614   H3    1.749   -0.573    0.611   H1   363      UGA   0.000000
  7615   O3    1.440   -2.066   -0.799   Oh   363      UGA  -0.699000
  7616  H3O    1.501   -2.828   -0.207   Ho   363      UGA   0.427000
  7617   C4    0.477    0.163   -0.989   Cg   363      UGA   0.254000
  7618   H4   -0.229   -0.253   -1.710   H1   363      UGA   0.000000
  7619   C5   -0.194    1.326   -0.228   Cg   363      UGA   0.283000
  7620   H5    0.559    1.802    0.403   H1   363      UGA   0.000000
  7621   C6   -0.783    2.394   -1.178   Cg   363      UGA   0.276000
  7622  H62   -0.069    2.646   -1.963   H1   363      UGA   0.000000
  7623  H61   -1.687    2.013   -1.654   H1   363      UGA   0.000000
  7624   O6   -1.099    3.604   -0.456   Os   363      UGA  -0.458000
  7625   O5   -1.278    0.786    0.657   Os   363      UGA  -0.574000
  7626   O4    1.631    0.673   -1.707   Os   363      UGA  -0.468000
  7627   C1   -1.456   -0.485    1.038   Cg   364      UGB   0.384000
  7628   H1   -1.061   -0.372    2.049   H2   364      UGB   0.000000
  7629   O5   -1.395    0.809    0.350   Os   364      UGB  -0.471000
  7630   C5   -0.019    1.345    0.119   Cg   364      UGB   0.225000
  7631   H5    0.465    1.478    1.089   H1   364      UGB   0.000000
  7632   C6   -0.117    2.719   -0.573   Cg   364      UGB   0.282000
  7633  H62   -0.586    2.614   -1.552   H1   364      UGB   0.000000
  7634  H61    0.874    3.150   -0.711   H1   364      UGB   0.000000
  7635   O6   -0.908    3.615    0.231   Os   364      UGB  -0.458000
  7636   C4    0.784    0.322   -0.710   Cg   364      UGB   0.276000
  7637   H4    0.356    0.252   -1.712   H1   364      UGB   0.000000
  7638   C3    0.769   -1.076   -0.046   Cg   364      UGB   0.284000
  7639   H3    1.328   -1.033    0.891   H1   364      UGB   0.000000
  7640   O3    1.426   -2.024   -0.932   Oh   364      UGB  -0.709000
  7641  H3O    1.334   -2.901   -0.536   Ho   364      UGB   0.432000
  7642   C2   -0.667   -1.565    0.247   Cg   364      UGB   0.310000
  7643   H2   -1.180   -1.768   -0.695   H1   364      UGB   0.000000
  7644   O2   -0.599   -2.800    1.019   Oh   364      UGB  -0.718000
  7645  H2O   -1.501   -3.056    1.254   Ho   364      UGB   0.437000
  7646   O4    2.154    0.779   -0.820   Os   364      UGB  -0.468000
  7647   C1   -1.098    0.901    1.170   Cg   365      UKA   0.473000
  7648   H1   -2.032    0.926    1.732   H2   365      UKA   0.000000
  7649   C2   -0.238   -0.277    1.677   Cg   365      UKA   0.281000
  7650   H2   -0.888   -1.153    1.678   H1   365      UKA   0.000000
  7651   O2    0.161   -0.067    3.043   Oh   365      UKA  -0.716000
  7652  H2O    0.721    0.711    3.096   Ho   365      UKA   0.427000
  7653   C3    0.980   -0.629    0.797   Cg   365      UKA   0.354000
  7654   H3    1.431   -1.560    1.143   H1   365      UKA   0.000000
  7655   O3    1.974    0.410    0.884   Oh   365      UKA  -0.744000
  7656  H3O    2.257    0.505    1.796   Ho   365      UKA   0.436000
  7657   C4    0.579   -0.753   -0.686   Cg   365      UKA   0.196000
  7658   H4    1.475   -0.840   -1.304   H1   365      UKA   0.000000
  7659   C5   -0.275    0.439   -1.185   Cg   365      UKA   0.301000
  7660   H5    0.361    1.326   -1.165   H1   365      UKA   0.000000
  7661   C6   -0.819    0.290   -2.613   Cg   365      UKA   0.287000
  7662  H62   -0.008    0.057   -3.303   H1   365      UKA   0.000000
  7663  H61   -1.559   -0.510   -2.666   H1   365      UKA   0.000000
  7664   O6   -1.428    1.526   -3.010   Os   365      UKA  -0.463000
  7665   O5   -1.417    0.668   -0.258   Os   365      UKA  -0.540000
  7666   O4   -0.175   -1.972   -0.826   Os   365      UKA  -0.486000
  7667   C1   -1.458   -0.427    0.967   Cg   366      UKB   0.449000
  7668   H1   -1.064   -0.276    1.973   H2   366      UKB   0.000000
  7669   O5   -1.366    0.826    0.212   Os   366      UKB  -0.514000
  7670   C5    0.029    1.284   -0.089   Cg   366      UKB   0.303000
  7671   H5    0.531    1.479    0.860   H1   366      UKB   0.000000
  7672   C6   -0.025    2.612   -0.871   Cg   366      UKB   0.259000
  7673  H62   -0.592    2.490   -1.794   H1   366      UKB   0.000000
  7674  H61    0.983    2.936   -1.129   H1   366      UKB   0.000000
  7675   O6   -0.650    3.634   -0.070   Os   366      UKB  -0.448000
  7676   C4    0.827    0.176   -0.829   Cg   366      UKB   0.217000
  7677   H4    1.870    0.487   -0.910   H1   366      UKB   0.000000
  7678   C3    0.751   -1.167   -0.069   Cg   366      UKB   0.253000
  7679   H3    1.228   -1.947   -0.663   H1   366      UKB   0.000000
  7680   O3    1.500   -1.026    1.167   Oh   366      UKB  -0.710000
  7681  H3O    1.384   -1.846    1.668   Ho   366      UKB   0.442000
  7682   C2   -0.710   -1.579    0.234   Cg   366      UKB   0.308000
  7683   H2   -1.215   -1.782   -0.711   H1   366      UKB   0.000000
  7684   O2   -0.712   -2.812    1.018   Oh   366      UKB  -0.710000
  7685  H2O   -1.629   -3.042    1.213   Ho   366      UKB   0.426000
  7686   O4    0.319   -0.020   -2.178   Os   366      UKB  -0.469000
  7687   C1   -1.134    0.973    1.124   Cg   367      ULA   0.465000
  7688   H1   -2.085    0.985    1.657   H2   367      ULA   0.000000
  7689   C2   -0.270   -0.192    1.661   Cg   367      ULA   0.339000
  7690   H2   -0.887   -1.092    1.674   H1   367      ULA   0.000000
  7691   O2    0.126    0.091    3.017   Oh   367      ULA  -0.724000
  7692  H2O    0.654    0.892    3.034   Ho   367      ULA   0.431000
  7693   C3    0.975   -0.451    0.791   Cg   367      ULA   0.253000
  7694   H3    1.653    0.400    0.871   H1   367      ULA   0.000000
  7695   O3    1.670   -1.622    1.260   Oh   367      ULA  -0.701000
  7696  H3O    1.912   -1.503    2.181   Ho   367      ULA   0.433000
  7697   C4    0.603   -0.644   -0.695   Cg   367      ULA   0.204000
  7698   H4    1.510   -0.745   -1.293   H1   367      ULA   0.000000
  7699   C5   -0.223    0.557   -1.204   Cg   367      ULA   0.216000
  7700   H5    0.410    1.444   -1.135   H1   367      ULA   0.000000
  7701   C6   -0.708    0.441   -2.656   Cg   367      ULA   0.308000
  7702  H62    0.132    0.227   -3.318   H1   367      ULA   0.000000
  7703  H61   -1.442   -0.359   -2.758   H1   367      ULA   0.000000
  7704   O6   -1.304    1.685   -3.047   Os   367      ULA  -0.460000
  7705   O5   -1.403    0.754   -0.316   Os   367      ULA  -0.527000
  7706   O4   -0.191   -1.841   -0.849   Os   367      ULA  -0.431000
  7707   C1   -1.452   -0.461    1.053   Cg   368      ULB   0.374000
  7708   H1   -1.059   -0.352    2.065   H2   368      ULB   0.000000
  7709   O5   -1.375    0.840    0.375   Os   368      ULB  -0.402000
  7710   C5    0.000    1.349    0.087   Cg   368      ULB   0.140000
  7711   H5    0.516    1.485    1.040   H1   368      ULB   0.000000
  7712   C6   -0.086    2.721   -0.605   Cg   368      ULB   0.319000
  7713  H62   -0.678    2.658   -1.520   H1   368      ULB   0.000000
  7714  H61    0.911    3.079   -0.862   H1   368      ULB   0.000000
  7715   O6   -0.702    3.660    0.291   Os   368      ULB  -0.468000
  7716   C4    0.793    0.305   -0.730   Cg   368      ULB   0.203000
  7717   H4    1.825    0.640   -0.840   H1   368      ULB   0.000000
  7718   C3    0.776   -1.067   -0.018   Cg   368      ULB   0.259000
  7719   H3    1.311   -0.965    0.929   H1   368      ULB   0.000000
  7720   O3    1.495   -2.036   -0.831   Oh   368      ULB  -0.694000
  7721  H3O    1.427   -2.893   -0.389   Ho   368      ULB   0.433000
  7722   C2   -0.662   -1.556    0.277   Cg   368      ULB   0.357000
  7723   H2   -1.174   -1.782   -0.661   H1   368      ULB   0.000000
  7724   O2   -0.587   -2.774    1.077   Oh   368      ULB  -0.726000
  7725  H2O   -1.489   -3.028    1.311   Ho   368      ULB   0.432000
  7726   O4    0.210    0.176   -2.050   Os   368      ULB  -0.421000
  7727   C1   -1.009   -0.222    1.703   Cg   369      UMA   0.433000
  7728   H1   -1.974   -0.538    2.099   H2   369      UMA   0.000000
  7729   C2   -0.304   -1.428    1.022   Cg   369      UMA   0.245000
  7730   H2    0.001   -2.147    1.784   H1   369      UMA   0.000000
  7731   O2   -1.228   -2.100    0.115   Oh   369      UMA  -0.717000
  7732  H2O   -0.727   -2.709   -0.441   Ho   369      UMA   0.446000
  7733   C3    0.943   -0.957    0.240   Cg   369      UMA   0.252000
  7734   H3    1.671   -0.562    0.953   H1   369      UMA   0.000000
  7735   O3    1.561   -2.098   -0.431   Oh   369      UMA  -0.696000
  7736  H3O    2.028   -2.641    0.214   Ho   369      UMA   0.431000
  7737   C4    0.592    0.156   -0.778   Cg   369      UMA   0.326000
  7738   H4   -0.080   -0.238   -1.542   H1   369      UMA   0.000000
  7739   C5   -0.071    1.357   -0.064   Cg   369      UMA   0.276000
  7740   H5    0.669    1.809    0.600   H1   369      UMA   0.000000
  7741   C6   -0.557    2.431   -1.061   Cg   369      UMA   0.266000
  7742  H62    0.216    2.649   -1.797   H1   369      UMA   0.000000
  7743  H61   -1.439    2.073   -1.595   H1   369      UMA   0.000000
  7744   O6   -0.882    3.661   -0.377   Os   369      UMA  -0.460000
  7745   O5   -1.223    0.896    0.772   Os   369      UMA  -0.507000
  7746   O4    1.815    0.608   -1.417   Os   369      UMA  -0.489000
  7747   C1   -1.457   -0.544    1.209   Cg   370      UMB   0.314000
  7748   H1   -0.975   -0.502    2.187   H2   370      UMB   0.000000
  7749   O5   -1.349    0.776    0.572   Os   370      UMB  -0.393000
  7750   C5    0.041    1.235    0.249   Cg   370      UMB   0.206000
  7751   H5    0.564    1.402    1.193   H1   370      UMB   0.000000
  7752   C6   -0.039    2.570   -0.512   Cg   370      UMB   0.273000
  7753  H62   -0.561    2.434   -1.460   H1   370      UMB   0.000000
  7754  H61    0.960    2.951   -0.722   H1   370      UMB   0.000000
  7755   O6   -0.748    3.541    0.279   Os   370      UMB  -0.455000
  7756   C4    0.804    0.154   -0.559   Cg   370      UMB   0.349000
  7757   H4    0.395    0.090   -1.568   H1   370      UMB   0.000000
  7758   C3    0.699   -1.225    0.146   Cg   370      UMB   0.263000
  7759   H3    1.148   -1.144    1.138   H1   370      UMB   0.000000
  7760   O3    1.435   -2.260   -0.567   Oh   370      UMB  -0.692000
  7761  H3O    2.368   -2.211   -0.336   Ho   370      UMB   0.430000
  7762   C2   -0.783   -1.633    0.328   Cg   370      UMB   0.241000
  7763   H2   -0.846   -2.602    0.823   H1   370      UMB   0.000000
  7764   O2   -1.459   -1.711   -0.963   Oh   370      UMB  -0.664000
  7765  H2O   -2.394   -1.870   -0.791   Ho   370      UMB   0.431000
  7766   O4    2.198    0.551   -0.648   Os   370      UMB  -0.497000
  7767   C1   -1.063    1.015    1.227   Cg   371      UNA   0.478000
  7768   H1   -2.010    1.109    1.760   H2   371      UNA   0.000000
  7769   C2   -0.327   -0.246    1.731   Cg   371      UNA   0.228000
  7770   H2   -1.043   -1.067    1.680   H1   371      UNA   0.000000
  7771   O2    0.034   -0.103    3.117   Oh   371      UNA  -0.668000
  7772  H2O    0.669    0.611    3.209   Ho   371      UNA   0.415000
  7773   C3    0.895   -0.666    0.891   Cg   371      UNA   0.330000
  7774   H3    1.278   -1.625    1.245   H1   371      UNA   0.000000
  7775   O3    1.936    0.327    1.019   Oh   371      UNA  -0.714000
  7776  H3O    2.715    0.038    0.538   Ho   371      UNA   0.441000
  7777   C4    0.461   -0.782   -0.585   Cg   371      UNA   0.167000
  7778   H4   -0.236   -1.618   -0.667   H1   371      UNA   0.000000
  7779   C5   -0.233    0.487   -1.128   Cg   371      UNA   0.404000
  7780   H5    0.485    1.309   -1.138   H1   371      UNA   0.000000
  7781   C6   -0.817    0.316   -2.538   Cg   371      UNA   0.280000
  7782  H62   -0.043   -0.002   -3.236   H1   371      UNA   0.000000
  7783  H61   -1.611   -0.432   -2.538   H1   371      UNA   0.000000
  7784   O6   -1.347    1.574   -2.979   Os   371      UNA  -0.461000
  7785   O5   -1.353    0.844   -0.215   Os   371      UNA  -0.611000
  7786   O4    1.611   -1.090   -1.394   Os   371      UNA  -0.483000
  7787   C1   -1.452   -0.462    0.978   Cg   372      UNB   0.422000
  7788   H1   -1.051   -0.340    1.986   H2   372      UNB   0.000000
  7789   O5   -1.359    0.817    0.259   Os   372      UNB  -0.507000
  7790   C5    0.029    1.285   -0.066   Cg   372      UNB   0.198000
  7791   H5    0.567    1.447    0.869   H1   372      UNB   0.000000
  7792   C6   -0.043    2.627   -0.820   Cg   372      UNB   0.313000
  7793  H62   -0.572    2.503   -1.765   H1   372      UNB   0.000000
  7794  H61    0.958    3.004   -1.031   H1   372      UNB   0.000000
  7795   O6   -0.743    3.587   -0.010   Os   372      UNB  -0.465000
  7796   C4    0.742    0.179   -0.880   Cg   372      UNB   0.286000
  7797   H4    0.213    0.045   -1.825   H1   372      UNB   0.000000
  7798   C3    0.745   -1.166   -0.118   Cg   372      UNB   0.234000
  7799   H3    1.219   -1.935   -0.731   H1   372      UNB   0.000000
  7800   O3    1.503   -1.028    1.120   Oh   372      UNB  -0.615000
  7801  H3O    1.341   -1.821    1.650   Ho   372      UNB   0.389000
  7802   C2   -0.704   -1.590    0.206   Cg   372      UNB   0.301000
  7803   H2   -1.224   -1.779   -0.737   H1   372      UNB   0.000000
  7804   O2   -0.681   -2.836    0.962   Oh   372      UNB  -0.703000
  7805  H2O   -1.592   -3.102    1.140   Ho   372      UNB   0.424000
  7806   O4    2.102    0.567   -1.186   Os   372      UNB  -0.471000
  7807   C1   -0.995    1.076    1.178   Cg   373      UTA   0.456000
  7808   H1   -1.958    1.089    1.691   H2   373      UTA   0.000000
  7809   C2   -0.133   -0.072    1.741   Cg   373      UTA   0.245000
  7810   H2    0.220    0.180    2.742   H1   373      UTA   0.000000
  7811   O2   -0.998   -1.217    1.847   Oh   373      UTA  -0.655000
  7812  H2O   -1.742   -1.006    2.416   Ho   373      UTA   0.436000
  7813   C3    1.073   -0.392    0.828   Cg   373      UTA   0.124000
  7814   H3    1.757    0.455    0.904   H1   373      UTA   0.000000
  7815   O3    1.789   -1.541    1.314   Oh   373      UTA  -0.687000
  7816  H3O    2.039   -1.399    2.230   Ho   373      UTA   0.442000
  7817   C4    0.730   -0.554   -0.667   Cg   373      UTA   0.434000
  7818   H4    1.651   -0.647   -1.246   H1   373      UTA   0.000000
  7819   C5   -0.064    0.676   -1.157   Cg   373      UTA   0.157000
  7820   H5    0.590    1.546   -1.068   H1   373      UTA   0.000000
  7821   C6   -0.543    0.598   -2.613   Cg   373      UTA   0.304000
  7822  H62    0.293    0.372   -3.274   H1   373      UTA   0.000000
  7823  H61   -1.300   -0.179   -2.733   H1   373      UTA   0.000000
  7824   O6   -1.102    1.865   -2.986   Os   373      UTA  -0.462000
  7825   O5   -1.243    0.890   -0.275   Os   373      UTA  -0.480000
  7826   O4   -0.064   -1.741   -0.872   Os   373      UTA  -0.508000
  7827   C1   -1.581    0.364    1.031   Cg   374      UTB   0.306000
  7828   H1   -1.336    1.314    1.509   H2   374      UTB   0.000000
  7829   O5   -1.410    0.523   -0.431   Os   374      UTB  -0.354000
  7830   C5   -0.050    0.946   -0.859   Cg   374      UTB   0.031000
  7831   H5    0.189    1.884   -0.354   H1   374      UTB   0.000000
  7832   C6   -0.067    1.222   -2.369   Cg   374      UTB   0.349000
  7833  H62   -0.417    0.347   -2.920   H1   374      UTB   0.000000
  7834  H61    0.934    1.474   -2.718   H1   374      UTB   0.000000
  7835   O6   -0.944    2.326   -2.628   Os   374      UTB  -0.454000
  7836   C4    0.986   -0.105   -0.394   Cg   374      UTB   0.314000
  7837   H4    1.993    0.268   -0.584   H1   374      UTB   0.000000
  7838   C3    0.815   -0.392    1.116   Cg   374      UTB   0.174000
  7839   H3    1.100    0.520    1.644   H1   374      UTB   0.000000
  7840   O3    1.730   -1.416    1.546   Oh   374      UTB  -0.678000
  7841  H3O    1.515   -2.241    1.105   Ho   374      UTB   0.425000
  7842   C2   -0.627   -0.730    1.556   Cg   374      UTB   0.340000
  7843   H2   -0.682   -0.783    2.644   H1   374      UTB   0.000000
  7844   O2   -1.019   -2.006    1.005   Oh   374      UTB  -0.637000
  7845  H2O   -1.924   -2.199    1.259   Ho   374      UTB   0.397000
  7846   O4    0.796   -1.317   -1.155   Os   374      UTB  -0.407000
  7847   C1   -0.362    1.408    0.135   Cg   375      UVA   0.389000
  7848   H1   -0.176    2.210   -0.579   H2   375      UVA   0.000000
  7849   C2    0.019    0.046   -0.532   Cg   375      UVA   0.399000
  7850   H2    1.030    0.147   -0.931   H1   375      UVA   0.000000
  7851   N2   -0.886   -0.287   -1.659   Ng   375      UVA  -0.595000
  7852  H2N   -1.757   -0.738   -1.434    H   375      UVA   0.238000
  7853  C2N   -0.723    0.219   -2.885    C   375      UVA   0.625000
  7854  CME   -1.805   -0.142   -3.921   Cg   375      UVA   0.032000
  7855  H3M   -2.797    0.061   -3.513   Hc   375      UVA   0.000000
  7856  H2M   -1.672    0.453   -4.826   Hc   375      UVA   0.000000
  7857  H1M   -1.730   -1.199   -4.178   Hc   375      UVA   0.000000
  7858  O2N    0.237    0.926   -3.172    O   375      UVA  -0.605000
  7859   C3    0.035   -1.097    0.517   Cg   375      UVA   0.176000
  7860   H3   -0.981   -1.237    0.891   H1   375      UVA   0.000000
  7861   O3    0.465   -2.370   -0.059   Oh   375      UVA  -0.678000
  7862  H3O   -0.106   -2.617   -0.795   Ho   375      UVA   0.425000
  7863   C4    0.944   -0.755    1.721   Cg   375      UVA   0.326000
  7864   H4    0.867   -1.549    2.465   H1   375      UVA   0.000000
  7865   C5    0.527    0.588    2.369   Cg   375      UVA   0.112000
  7866   H5   -0.476    0.445    2.773   H1   375      UVA   0.000000
  7867   C6    1.409    1.033    3.554   Cg   375      UVA   0.362000
  7868  H62    1.012    1.947    3.996   H1   375      UVA   0.000000
  7869  H61    1.409    0.259    4.322   H1   375      UVA   0.000000
  7870   O6    2.761    1.266    3.131   Os   375      UVA  -0.481000
  7871   O5    0.436    1.672    1.342   Os   375      UVA  -0.466000
  7872   O4    2.319   -0.687    1.267   Os   375      UVA  -0.453000
  7873   C1   -1.281    0.711    0.826   Cg   376      UVB   0.305000
  7874   H1   -0.834    0.825    1.815   H2   376      UVB   0.000000
  7875   O5   -1.177    1.999    0.122   Os   376      UVB  -0.408000
  7876   C5    0.206    2.459   -0.209   Cg   376      UVB   0.136000
  7877   H5    0.739    2.627    0.729   H1   376      UVB   0.000000
  7878   C6    0.145    3.795   -0.970   Cg   376      UVB   0.353000
  7879  H62   -0.467    3.704   -1.868   H1   376      UVB   0.000000
  7880  H61    1.147    4.110   -1.264   H1   376      UVB   0.000000
  7881   O6   -0.423    4.795   -0.110   Os   376      UVB  -0.481000
  7882   C4    0.965    1.360   -0.985   Cg   376      UVB   0.253000
  7883   H4    2.004    1.665   -1.118   H1   376      UVB   0.000000
  7884   C3    0.922    0.012   -0.234   Cg   376      UVB   0.152000
  7885   H3    1.427    0.142    0.726   H1   376      UVB   0.000000
  7886   O3    1.688   -0.973   -0.995   Oh   376      UVB  -0.665000
  7887  H3O    2.629   -0.911   -0.801   Ho   376      UVB   0.415000
  7888   C2   -0.544   -0.434    0.048   Cg   376      UVB   0.544000
  7889   H2   -1.056   -0.577   -0.905   H1   376      UVB   0.000000
  7890   N2   -0.565   -1.700    0.817   Ng   376      UVB  -0.686000
  7891  H2N   -0.338   -1.662    1.795    H   376      UVB   0.254000
  7892  C2N   -0.905   -2.871    0.272    C   376      UVB   0.586000
  7893  O2N   -1.220   -2.980   -0.908    O   376      UVB  -0.564000
  7894  CME   -0.866   -4.097    1.209   Cg   376      UVB   0.056000
  7895  H3M   -1.177   -3.820    2.218   Hc   376      UVB   0.000000
  7896  H2M   -1.538   -4.871    0.837   Hc   376      UVB   0.000000
  7897  H1M    0.150   -4.495    1.243   Hc   376      UVB   0.000000
  7898   O4    0.369    1.188   -2.290   Os   376      UVB  -0.444000
  7899   C1   -1.470    1.202   -0.171   Cg   377      UWA   0.462100
  7900   H1   -1.327    2.036   -0.857   H2   377      UWA   0.000000
  7901   C2   -1.039   -0.123   -0.859   Cg   377      UWA   0.275000
  7902   H2   -1.748   -0.336   -1.661   H1   377      UWA   0.000000
  7903   N2    0.300    0.006   -1.481   Ng   377      UWA  -0.475100
  7904  H2N    1.061   -0.502   -1.060    H   377      UWA   0.214200
  7905  C2N    0.533    0.686   -2.607    C   377      UWA   0.590900
  7906  CME    1.984    0.652   -3.119   Cg   377      UWA  -0.034000
  7907  H3M    2.651    1.078   -2.368   Hc   377      UWA   0.000000
  7908  H2M    2.073    1.232   -4.039   Hc   377      UWA   0.000000
  7909  H1M    2.281   -0.378   -3.322   Hc   377      UWA   0.000000
  7910  O2N   -0.349    1.314   -3.189    O   377      UWA  -0.575700
  7911   C3   -1.088   -1.287    0.162   Cg   377      UWA   0.252000
  7912   H3   -2.128   -1.446    0.450   H1   377      UWA   0.000000
  7913   O3   -0.606   -2.517   -0.449   Oh   377      UWA  -0.698700
  7914  H3O   -0.512   -3.198    0.228   Ho   377      UWA   0.415900
  7915   C4   -0.264   -0.987    1.440   Cg   377      UWA   0.321300
  7916   H4    0.794   -0.990    1.175   H1   377      UWA   0.000000
  7917   C5   -0.627    0.375    2.077   Cg   377      UWA   0.242100
  7918   H5   -1.628    0.288    2.506   H1   377      UWA   0.000000
  7919   C6    0.321    0.793    3.223   Cg   377      UWA   0.299500
  7920  H62    0.077    1.804    3.549   H1   377      UWA   0.000000
  7921  H61    0.188    0.128    4.077   H1   377      UWA   0.000000
  7922   O6    1.707    0.752    2.822   Os   377      UWA  -0.459900
  7923   O5   -0.690    1.457    1.048   Os   377      UWA  -0.541500
  7924   O4   -0.494   -2.038    2.425   Os   377      UWA  -0.482100
  7925   C1   -0.939    0.215    1.792   Cg   378      UWB   0.387000
  7926   H1   -0.457    0.305    2.767   H2   378      UWB   0.000000
  7927   O5   -0.886    1.510    1.112   Os   378      UWB  -0.498000
  7928   C5    0.499    2.026    0.865   Cg   378      UWB   0.321000
  7929   H5    0.981    2.177    1.833   H1   378      UWB   0.000000
  7930   C6    0.402    3.387    0.147   Cg   378      UWB   0.247000
  7931  H62   -0.076    3.265   -0.826   H1   378      UWB   0.000000
  7932  H61    1.396    3.806   -0.011   H1   378      UWB   0.000000
  7933   O6   -0.373    4.316    0.933   Os   378      UWB  -0.444000
  7934   C4    1.312    0.985    0.057   Cg   378      UWB   0.277000
  7935   H4    0.928    0.940   -0.964   H1   378      UWB   0.000000
  7936   C3    1.234   -0.427    0.695   Cg   378      UWB   0.217000
  7937   H3    1.740   -0.403    1.663   H1   378      UWB   0.000000
  7938   O3    1.941   -1.381   -0.150   Oh   378      UWB  -0.658000
  7939  H3O    1.532   -2.260   -0.080   Ho   378      UWB   0.413000
  7940   C2   -0.230   -0.875    0.936   Cg   378      UWB   0.294000
  7941   H2   -0.207   -1.797    1.521   H1   378      UWB   0.000000
  7942   N2   -0.940   -1.150   -0.339   Ng   378      UWB  -0.558000
  7943  H2N   -1.453   -0.391   -0.756    H   378      UWB   0.265000
  7944  C2N   -0.962   -2.350   -0.928    C   378      UWB   0.585000
  7945  O2N   -0.315   -3.294   -0.480    O   378      UWB  -0.600000
  7946  CME   -1.805   -2.476   -2.215   Cg   378      UWB   0.056000
  7947  H3M   -2.486   -1.630   -2.326   Hc   378      UWB   0.000000
  7948  H2M   -2.394   -3.394   -2.184   Hc   378      UWB   0.000000
  7949  H1M   -1.140   -2.508   -3.078   Hc   378      UWB   0.000000
  7950   O4    2.697    1.403    0.013   Os   378      UWB  -0.498000
  7951   C1   -0.584    1.619    0.135   Cg   379      UYA   0.468000
  7952   H1   -0.415    2.461   -0.536   H2   379      UYA   0.000000
  7953   C2   -0.042    0.322   -0.539   Cg   379      UYA   0.245000
  7954   H2    0.978    0.537   -0.864   H1   379      UYA   0.000000
  7955   N2   -0.833   -0.026   -1.748   Ng   379      UYA  -0.552000
  7956  H2N   -1.807    0.236   -1.730    H   379      UYA   0.236000
  7957  C2N   -0.359   -0.707   -2.798    C   379      UYA   0.588000
  7958  CME   -1.305   -0.885   -4.006   Cg   379      UYA   0.063000
  7959  H3M   -2.258   -0.379   -3.842   Hc   379      UYA   0.000000
  7960  H2M   -0.835   -0.469   -4.898   Hc   379      UYA   0.000000
  7961  H1M   -1.492   -1.947   -4.165   Hc   379      UYA   0.000000
  7962  O2N    0.775   -1.179   -2.795    O   379      UYA  -0.579000
  7963   C3    0.021   -0.864    0.452   Cg   379      UYA   0.165000
  7964   H3   -0.998   -1.180    0.686   H1   379      UYA   0.000000
  7965   O3    0.724   -1.985   -0.157   Oh   379      UYA  -0.630000
  7966  H3O    0.827   -1.831   -1.117   Ho   379      UYA   0.413000
  7967   C4    0.753   -0.493    1.762   Cg   379      UYA   0.322000
  7968   H4    1.816   -0.366    1.551   H1   379      UYA   0.000000
  7969   C5    0.192    0.793    2.409   Cg   379      UYA   0.246000
  7970   H5   -0.818    0.580    2.765   H1   379      UYA   0.000000
  7971   C6    1.019    1.260    3.626   Cg   379      UYA   0.328000
  7972  H62    0.989    0.504    4.411   H1   379      UYA   0.000000
  7973  H61    0.590    2.177    4.030   H1   379      UYA   0.000000
  7974   O6    2.397    1.509    3.272   Os   379      UYA  -0.461000
  7975   O5    0.080    1.903    1.406   Os   379      UYA  -0.568000
  7976   O4    0.585   -1.589    2.692   Os   379      UYA  -0.478000
  7977   C1   -1.241    0.682    0.783   Cg   380      UYB   0.287000
  7978   H1   -0.805    0.818    1.774   H2   380      UYB   0.000000
  7979   O5   -1.187    1.963    0.069   Os   380      UYB  -0.433000
  7980   C5    0.186    2.485   -0.197   Cg   380      UYB   0.208000
  7981   H5    0.686    2.641    0.762   H1   380      UYB   0.000000
  7982   C6    0.091    3.837   -0.927   Cg   380      UYB   0.289000
  7983  H62   -0.403    3.712   -1.892   H1   380      UYB   0.000000
  7984  H61    1.085    4.249   -1.101   H1   380      UYB   0.000000
  7985   O6   -0.664    4.767   -0.129   Os   380      UYB  -0.459000
  7986   C4    0.967    1.430   -1.006   Cg   380      UYB   0.302000
  7987   H4    0.517    1.321   -1.995   H1   380      UYB   0.000000
  7988   C3    0.985    0.057   -0.292   Cg   380      UYB   0.180000
  7989   H3    1.519    0.159    0.655   H1   380      UYB   0.000000
  7990   O3    1.726   -0.887   -1.126   Oh   380      UYB  -0.681000
  7991  H3O    1.880   -1.713   -0.654   Ho   380      UYB   0.423000
  7992   C2   -0.462   -0.431    0.004   Cg   380      UYB   0.480000
  7993   H2   -0.969   -0.582   -0.951   H1   380      UYB   0.000000
  7994   N2   -0.445   -1.705    0.765   Ng   380      UYB  -0.722000
  7995  H2N   -0.261   -1.655    1.753    H   380      UYB   0.300000
  7996  C2N   -0.857   -2.868    0.252    C   380      UYB   0.648000
  7997  O2N   -1.169   -2.986   -0.928    O   380      UYB  -0.576000
  7998  CME   -0.875   -4.074    1.213   Cg   380      UYB   0.034000
  7999  H3M   -1.195   -3.766    2.211   Hc   380      UYB   0.000000
  8000  H2M   -1.565   -4.835    0.845   Hc   380      UYB   0.000000
  8001  H1M    0.126   -4.503    1.273   Hc   380      UYB   0.000000
  8002   O4    2.329    1.883   -1.161   Os   380      UYB  -0.474000
  8003   C1   -0.868    1.087    1.408   Cg   381      VEA   0.480000
  8004   H1   -1.803    1.150    1.968   H2   381      VEA   0.000000
  8005   C2   -0.052   -0.121    1.920   Cg   381      VEA   0.179000
  8006   H2    0.365    0.102    2.904   H1   381      VEA   0.000000
  8007   O2   -0.975   -1.211    2.079   Oh   381      VEA  -0.690000
  8008  H2O   -1.672   -0.954    2.687   Ho   381      VEA   0.447000
  8009   C3    1.064   -0.599    0.971   Cg   381      VEA   0.328000
  8010   H3    1.438   -1.572    1.292   H1   381      VEA   0.000000
  8011   C4    0.576   -0.682   -0.492   Cg   381      VEA   0.261000
  8012   H4   -0.144   -1.498   -0.565   H1   381      VEA   0.000000
  8013   C5   -0.103    0.613   -0.978   Cg   381      VEA   0.374000
  8014   H5    0.625    1.427   -0.966   H1   381      VEA   0.000000
  8015   C6   -0.716    0.508   -2.382   Cg   381      VEA   0.259000
  8016  H62    0.040    0.205   -3.107   H1   381      VEA   0.000000
  8017  H61   -1.523   -0.226   -2.397   H1   381      VEA   0.000000
  8018   O6   -1.231    1.791   -2.761   Os   381      VEA  -0.451000
  8019   O5   -1.198    0.936   -0.029   Os   381      VEA  -0.587000
  8020   O4    1.689   -1.002   -1.347   Oh   381      VEA  -0.721000
  8021  H4O    2.348   -0.307   -1.285   Ho   381      VEA   0.415000
  8022   O3    2.141    0.354    1.079   Os   381      VEA  -0.488000
  8023   C1   -1.546   -0.615    1.165   Cg   382      VEB   0.488000
  8024   H1   -1.170   -0.512    2.183   H2   382      VEB   0.000000
  8025   O5   -1.412    0.672    0.472   Os   382      VEB  -0.532000
  8026   C5    0.002    1.129    0.258   Cg   382      VEB   0.257000
  8027   H5    0.459    1.299    1.235   H1   382      VEB   0.000000
  8028   C6   -0.010    2.463   -0.514   Cg   382      VEB   0.278000
  8029  H62   -0.461    2.323   -1.498   H1   382      VEB   0.000000
  8030  H61    1.004    2.836   -0.652   H1   382      VEB   0.000000
  8031   O6   -0.771    3.445    0.213   Os   382      VEB  -0.463000
  8032   C4    0.798    0.032   -0.491   Cg   382      VEB   0.320000
  8033   H4    0.390   -0.067   -1.498   H1   382      VEB   0.000000
  8034   O4    2.199    0.413   -0.619   Oh   382      VEB  -0.724000
  8035  H4O    2.606   -0.065   -1.350   Ho   382      VEB   0.420000
  8036   C3    0.682   -1.339    0.232   Cg   382      VEB   0.315000
  8037   H3    1.205   -2.098   -0.352   H1   382      VEB   0.000000
  8038   C2   -0.790   -1.752    0.411   Cg   382      VEB   0.184000
  8039   H2   -0.848   -2.674    0.993   H1   382      VEB   0.000000
  8040   O2   -1.347   -2.013   -0.916   Oh   382      VEB  -0.697000
  8041  H2O   -2.290   -2.200   -0.818   Ho   382      VEB   0.432000
  8042   O3    1.301   -1.278    1.546   Os   382      VEB  -0.472000
  8043   C1   -0.956   -0.412    1.693   Cg   383      VGA   0.509000
  8044   H1   -1.865   -0.773    2.174   H2   383      VGA   0.000000
  8045   C2   -0.240   -1.590    0.971   Cg   383      VGA   0.246000
  8046   H2   -0.978   -2.086    0.338   H1   383      VGA   0.000000
  8047   O2    0.264   -2.579    1.927   Oh   383      VGA  -0.713000
  8048  H2O    0.636   -2.120    2.693   Ho   383      VGA   0.437000
  8049   C3    0.910   -1.086    0.075   Cg   383      VGA   0.286000
  8050   H3    1.719   -0.710    0.704   H1   383      VGA   0.000000
  8051   C4    0.447    0.027   -0.896   Cg   383      VGA   0.254000
  8052   H4   -0.259   -0.390   -1.616   H1   383      VGA   0.000000
  8053   C5   -0.224    1.189   -0.135   Cg   383      VGA   0.283000
  8054   H5    0.529    1.665    0.496   H1   383      VGA   0.000000
  8055   C6   -0.813    2.257   -1.085   Cg   383      VGA   0.276000
  8056  H62   -0.100    2.509   -1.870   H1   383      VGA   0.000000
  8057  H61   -1.717    1.876   -1.561   H1   383      VGA   0.000000
  8058   O6   -1.129    3.467   -0.363   Os   383      VGA  -0.458000
  8059   O5   -1.308    0.649    0.751   Os   383      VGA  -0.574000
  8060   O4    1.601    0.536   -1.613   Oh   383      VGA  -0.710000
  8061  H4O    2.072   -0.228   -1.978   Ho   383      VGA   0.436000
  8062   O3    1.410   -2.203   -0.706   Os   383      VGA  -0.466000
  8063   C1   -1.522   -0.633    1.073   Cg   384      VGB   0.384000
  8064   H1   -1.127   -0.521    2.083   H2   384      VGB   0.000000
  8065   O5   -1.462    0.660    0.385   Os   384      VGB  -0.471000
  8066   C5   -0.085    1.197    0.154   Cg   384      VGB   0.225000
  8067   H5    0.398    1.330    1.124   H1   384      VGB   0.000000
  8068   C6   -0.184    2.570   -0.538   Cg   384      VGB   0.282000
  8069  H62   -0.653    2.466   -1.518   H1   384      VGB   0.000000
  8070  H61    0.807    3.002   -0.676   H1   384      VGB   0.000000
  8071   O6   -0.974    3.466    0.265   Os   384      VGB  -0.458000
  8072   C4    0.718    0.173   -0.675   Cg   384      VGB   0.276000
  8073   H4    0.289    0.103   -1.677   H1   384      VGB   0.000000
  8074   O4    2.087    0.630   -0.785   Oh   384      VGB  -0.714000
  8075  H4O    2.598   -0.080   -1.198   Ho   384      VGB   0.440000
  8076   C3    0.702   -1.225   -0.011   Cg   384      VGB   0.284000
  8077   H3    1.262   -1.182    0.926   H1   384      VGB   0.000000
  8078   C2   -0.734   -1.714    0.282   Cg   384      VGB   0.310000
  8079   H2   -1.247   -1.917   -0.660   H1   384      VGB   0.000000
  8080   O2   -0.666   -2.949    1.054   Oh   384      VGB  -0.718000
  8081  H2O   -1.567   -3.205    1.289   Ho   384      VGB   0.437000
  8082   O3    1.359   -2.172   -0.897   Os   384      VGB  -0.471000
  8083   C1   -0.965    1.031    1.347   Cg   385      VKA   0.473000
  8084   H1   -1.898    1.056    1.909   H2   385      VKA   0.000000
  8085   C2   -0.104   -0.147    1.854   Cg   385      VKA   0.281000
  8086   H2   -0.754   -1.024    1.855   H1   385      VKA   0.000000
  8087   O2    0.295    0.063    3.221   Oh   385      VKA  -0.716000
  8088  H2O    0.855    0.841    3.273   Ho   385      VKA   0.427000
  8089   C3    1.114   -0.499    0.974   Cg   385      VKA   0.354000
  8090   H3    1.565   -1.430    1.320   H1   385      VKA   0.000000
  8091   C4    0.713   -0.623   -0.509   Cg   385      VKA   0.196000
  8092   H4    1.608   -0.710   -1.126   H1   385      VKA   0.000000
  8093   C5   -0.141    0.569   -1.008   Cg   385      VKA   0.301000
  8094   H5    0.495    1.456   -0.988   H1   385      VKA   0.000000
  8095   C6   -0.685    0.420   -2.436   Cg   385      VKA   0.287000
  8096  H62    0.125    0.187   -3.126   H1   385      VKA   0.000000
  8097  H61   -1.425   -0.380   -2.489   H1   385      VKA   0.000000
  8098   O6   -1.294    1.656   -2.833   Os   385      VKA  -0.463000
  8099   O5   -1.283    0.797   -0.081   Os   385      VKA  -0.540000
  8100   O4   -0.041   -1.842   -0.649   Oh   385      VKA  -0.712000
  8101  H4O   -0.288   -1.961   -1.569   Ho   385      VKA   0.420000
  8102   O3    2.108    0.540    1.061   Os   385      VKA  -0.502000
  8103   C1   -1.437   -0.494    1.186   Cg   386      VKB   0.449000
  8104   H1   -1.043   -0.343    2.192   H2   386      VKB   0.000000
  8105   O5   -1.345    0.759    0.432   Os   386      VKB  -0.514000
  8106   C5    0.050    1.217    0.130   Cg   386      VKB   0.303000
  8107   H5    0.552    1.412    1.079   H1   386      VKB   0.000000
  8108   C6   -0.004    2.545   -0.652   Cg   386      VKB   0.259000
  8109  H62   -0.571    2.422   -1.575   H1   386      VKB   0.000000
  8110  H61    1.004    2.869   -0.910   H1   386      VKB   0.000000
  8111   O6   -0.629    3.567    0.149   Os   386      VKB  -0.448000
  8112   C4    0.849    0.109   -0.610   Cg   386      VKB   0.217000
  8113   H4    1.891    0.420   -0.691   H1   386      VKB   0.000000
  8114   O4    0.340   -0.087   -1.959   Oh   386      VKB  -0.700000
  8115  H4O    0.982   -0.568   -2.493   Ho   386      VKB   0.425000
  8116   C3    0.772   -1.234    0.150   Cg   386      VKB   0.253000
  8117   H3    1.249   -2.015   -0.444   H1   386      VKB   0.000000
  8118   C2   -0.688   -1.646    0.453   Cg   386      VKB   0.308000
  8119   H2   -1.194   -1.850   -0.492   H1   386      VKB   0.000000
  8120   O2   -0.691   -2.880    1.238   Oh   386      VKB  -0.710000
  8121  H2O   -1.608   -3.109    1.432   Ho   386      VKB   0.426000
  8122   O3    1.521   -1.094    1.386   Os   386      VKB  -0.462000
  8123   C1   -1.017    0.996    1.322   Cg   387      VLA   0.465000
  8124   H1   -1.968    1.008    1.855   H2   387      VLA   0.000000
  8125   C2   -0.153   -0.170    1.859   Cg   387      VLA   0.339000
  8126   H2   -0.770   -1.069    1.872   H1   387      VLA   0.000000
  8127   O2    0.243    0.113    3.215   Oh   387      VLA  -0.724000
  8128  H2O    0.771    0.915    3.232   Ho   387      VLA   0.431000
  8129   C3    1.092   -0.429    0.989   Cg   387      VLA   0.253000
  8130   H3    1.770    0.423    1.069   H1   387      VLA   0.000000
  8131   C4    0.720   -0.621   -0.497   Cg   387      VLA   0.204000
  8132   H4    1.627   -0.723   -1.095   H1   387      VLA   0.000000
  8133   C5   -0.106    0.580   -1.006   Cg   387      VLA   0.216000
  8134   H5    0.527    1.467   -0.937   H1   387      VLA   0.000000
  8135   C6   -0.591    0.463   -2.458   Cg   387      VLA   0.308000
  8136  H62    0.249    0.250   -3.120   H1   387      VLA   0.000000
  8137  H61   -1.325   -0.337   -2.561   H1   387      VLA   0.000000
  8138   O6   -1.187    1.708   -2.849   Os   387      VLA  -0.460000
  8139   O5   -1.287    0.777   -0.118   Os   387      VLA  -0.527000
  8140   O4   -0.075   -1.818   -0.651   Oh   387      VLA  -0.673000
  8141  H4O   -0.306   -1.932   -1.576   Ho   387      VLA   0.436000
  8142   O3    1.787   -1.599    1.457   Os   387      VLA  -0.462000
  8143   C1   -1.414   -0.577    1.158   Cg   388      VLB   0.374000
  8144   H1   -1.021   -0.469    2.170   H2   388      VLB   0.000000
  8145   O5   -1.337    0.724    0.480   Os   388      VLB  -0.402000
  8146   C5    0.039    1.233    0.192   Cg   388      VLB   0.140000
  8147   H5    0.555    1.368    1.145   H1   388      VLB   0.000000
  8148   C6   -0.047    2.604   -0.500   Cg   388      VLB   0.319000
  8149  H62   -0.639    2.541   -1.415   H1   388      VLB   0.000000
  8150  H61    0.949    2.962   -0.757   H1   388      VLB   0.000000
  8151   O6   -0.664    3.544    0.396   Os   388      VLB  -0.468000
  8152   C4    0.832    0.188   -0.625   Cg   388      VLB   0.203000
  8153   H4    1.864    0.524   -0.735   H1   388      VLB   0.000000
  8154   O4    0.249    0.059   -1.945   Oh   388      VLB  -0.664000
  8155  H4O    0.696   -0.678   -2.383   Ho   388      VLB   0.437000
  8156   C3    0.814   -1.184    0.087   Cg   388      VLB   0.259000
  8157   H3    1.350   -1.082    1.034   H1   388      VLB   0.000000
  8158   C2   -0.624   -1.673    0.382   Cg   388      VLB   0.357000
  8159   H2   -1.135   -1.899   -0.556   H1   388      VLB   0.000000
  8160   O2   -0.549   -2.890    1.182   Oh   388      VLB  -0.726000
  8161  H2O   -1.450   -3.144    1.416   Ho   388      VLB   0.432000
  8162   O3    1.533   -2.152   -0.726   Os   388      VLB  -0.455000
  8163   C1   -1.021   -0.345    1.802   Cg   389      VMA   0.433000
  8164   H1   -1.986   -0.662    2.198   H2   389      VMA   0.000000
  8165   C2   -0.315   -1.551    1.121   Cg   389      VMA   0.245000
  8166   H2   -0.011   -2.270    1.883   H1   389      VMA   0.000000
  8167   O2   -1.240   -2.223    0.214   Oh   389      VMA  -0.717000
  8168  H2O   -0.739   -2.832   -0.342   Ho   389      VMA   0.446000
  8169   C3    0.932   -1.080    0.339   Cg   389      VMA   0.252000
  8170   H3    1.659   -0.685    1.051   H1   389      VMA   0.000000
  8171   C4    0.580    0.033   -0.679   Cg   389      VMA   0.326000
  8172   H4   -0.092   -0.362   -1.443   H1   389      VMA   0.000000
  8173   C5   -0.082    1.234    0.035   Cg   389      VMA   0.276000
  8174   H5    0.657    1.686    0.699   H1   389      VMA   0.000000
  8175   C6   -0.569    2.308   -0.962   Cg   389      VMA   0.266000
  8176  H62    0.204    2.526   -1.698   H1   389      VMA   0.000000
  8177  H61   -1.451    1.950   -1.496   H1   389      VMA   0.000000
  8178   O6   -0.894    3.537   -0.278   Os   389      VMA  -0.460000
  8179   O5   -1.235    0.772    0.871   Os   389      VMA  -0.507000
  8180   O4    1.803    0.484   -1.318   Oh   389      VMA  -0.733000
  8181  H4O    2.250   -0.298   -1.666   Ho   389      VMA   0.438000
  8182   O3    1.549   -2.222   -0.332   Os   389      VMA  -0.459000
  8183   C1   -1.468   -0.659    1.262   Cg   390      VMB   0.314000
  8184   H1   -0.987   -0.617    2.240   H2   390      VMB   0.000000
  8185   O5   -1.360    0.661    0.625   Os   390      VMB  -0.393000
  8186   C5    0.029    1.120    0.302   Cg   390      VMB   0.206000
  8187   H5    0.553    1.287    1.245   H1   390      VMB   0.000000
  8188   C6   -0.051    2.455   -0.459   Cg   390      VMB   0.273000
  8189  H62   -0.573    2.320   -1.407   H1   390      VMB   0.000000
  8190  H61    0.949    2.836   -0.669   H1   390      VMB   0.000000
  8191   O6   -0.760    3.426    0.332   Os   390      VMB  -0.455000
  8192   C4    0.793    0.040   -0.506   Cg   390      VMB   0.349000
  8193   H4    0.383   -0.025   -1.515   H1   390      VMB   0.000000
  8194   O4    2.186    0.436   -0.596   Oh   390      VMB  -0.746000
  8195  H4O    2.588   -0.031   -1.336   Ho   390      VMB   0.443000
  8196   C3    0.687   -1.340    0.199   Cg   390      VMB   0.263000
  8197   H3    1.137   -1.259    1.191   H1   390      VMB   0.000000
  8198   C2   -0.794   -1.747    0.380   Cg   390      VMB   0.241000
  8199   H2   -0.858   -2.717    0.876   H1   390      VMB   0.000000
  8200   O2   -1.471   -1.826   -0.910   Oh   390      VMB  -0.664000
  8201  H2O   -2.406   -1.985   -0.738   Ho   390      VMB   0.431000
  8202   O3    1.424   -2.375   -0.514   Os   390      VMB  -0.456000
  8203   C1   -1.040    1.035    1.321   Cg   391      VNA   0.478000
  8204   H1   -1.986    1.129    1.854   H2   391      VNA   0.000000
  8205   C2   -0.303   -0.226    1.826   Cg   391      VNA   0.228000
  8206   H2   -1.019   -1.047    1.774   H1   391      VNA   0.000000
  8207   O2    0.058   -0.082    3.211   Oh   391      VNA  -0.668000
  8208  H2O    0.693    0.632    3.303   Ho   391      VNA   0.415000
  8209   C3    0.919   -0.646    0.986   Cg   391      VNA   0.330000
  8210   H3    1.301   -1.605    1.339   H1   391      VNA   0.000000
  8211   C4    0.485   -0.762   -0.491   Cg   391      VNA   0.167000
  8212   H4   -0.212   -1.598   -0.573   H1   391      VNA   0.000000
  8213   C5   -0.209    0.507   -1.034   Cg   391      VNA   0.404000
  8214   H5    0.509    1.330   -1.043   H1   391      VNA   0.000000
  8215   C6   -0.793    0.336   -2.444   Cg   391      VNA   0.280000
  8216  H62   -0.019    0.018   -3.142   H1   391      VNA   0.000000
  8217  H61   -1.587   -0.412   -2.443   H1   391      VNA   0.000000
  8218   O6   -1.323    1.594   -2.885   Os   391      VNA  -0.461000
  8219   O5   -1.329    0.864   -0.121   Os   391      VNA  -0.611000
  8220   O4    1.634   -1.069   -1.299   Oh   391      VNA  -0.733000
  8221  H4O    2.262   -0.345   -1.251   Ho   391      VNA   0.444000
  8222   O3    1.960    0.348    1.113   Os   391      VNA  -0.467000
  8223   C1   -1.518   -0.570    1.081   Cg   392      VNB   0.422000
  8224   H1   -1.117   -0.448    2.090   H2   392      VNB   0.000000
  8225   O5   -1.424    0.709    0.363   Os   392      VNB  -0.507000
  8226   C5   -0.037    1.177    0.037   Cg   392      VNB   0.198000
  8227   H5    0.501    1.339    0.973   H1   392      VNB   0.000000
  8228   C6   -0.108    2.519   -0.716   Cg   392      VNB   0.313000
  8229  H62   -0.638    2.395   -1.661   H1   392      VNB   0.000000
  8230  H61    0.892    2.896   -0.927   H1   392      VNB   0.000000
  8231   O6   -0.809    3.479    0.094   Os   392      VNB  -0.465000
  8232   C4    0.677    0.071   -0.776   Cg   392      VNB   0.286000
  8233   H4    0.147   -0.063   -1.721   H1   392      VNB   0.000000
  8234   O4    2.037    0.459   -1.082   Oh   392      VNB  -0.707000
  8235  H4O    2.590    0.231   -0.324   Ho   392      VNB   0.430000
  8236   C3    0.679   -1.274   -0.014   Cg   392      VNB   0.234000
  8237   H3    1.154   -2.043   -0.627   H1   392      VNB   0.000000
  8238   C2   -0.770   -1.698    0.310   Cg   392      VNB   0.301000
  8239   H2   -1.290   -1.887   -0.633   H1   392      VNB   0.000000
  8240   O2   -0.746   -2.944    1.066   Oh   392      VNB  -0.703000
  8241  H2O   -1.658   -3.210    1.244   Ho   392      VNB   0.424000
  8242   O3    1.437   -1.136    1.224   Os   392      VNB  -0.420000
  8243   C1   -0.880    1.098    1.380   Cg   393      VTA   0.456000
  8244   H1   -1.842    1.110    1.893   H2   393      VTA   0.000000
  8245   C2   -0.017   -0.050    1.942   Cg   393      VTA   0.245000
  8246   H2    0.335    0.201    2.944   H1   393      VTA   0.000000
  8247   O2   -0.883   -1.196    2.049   Oh   393      VTA  -0.655000
  8248  H2O   -1.626   -0.984    2.618   Ho   393      VTA   0.436000
  8249   C3    1.188   -0.370    1.030   Cg   393      VTA   0.124000
  8250   H3    1.872    0.476    1.106   H1   393      VTA   0.000000
  8251   C4    0.846   -0.532   -0.466   Cg   393      VTA   0.434000
  8252   H4    1.766   -0.626   -1.044   H1   393      VTA   0.000000
  8253   C5    0.051    0.698   -0.955   Cg   393      VTA   0.157000
  8254   H5    0.706    1.567   -0.866   H1   393      VTA   0.000000
  8255   C6   -0.428    0.620   -2.411   Cg   393      VTA   0.304000
  8256  H62    0.409    0.394   -3.072   H1   393      VTA   0.000000
  8257  H61   -1.184   -0.158   -2.531   H1   393      VTA   0.000000
  8258   O6   -0.986    1.887   -2.784   Os   393      VTA  -0.462000
  8259   O5   -1.128    0.912   -0.073   Os   393      VTA  -0.480000
  8260   O4    0.051   -1.719   -0.671   Oh   393      VTA  -0.731000
  8261  H4O   -0.153   -1.810   -1.604   Ho   393      VTA   0.417000
  8262   O3    1.904   -1.519    1.516   Os   393      VTA  -0.439000
  8263   C1   -1.551    0.308    1.191   Cg   394      VTB   0.306000
  8264   H1   -1.306    1.258    1.669   H2   394      VTB   0.000000
  8265   O5   -1.380    0.468   -0.272   Os   394      VTB  -0.354000
  8266   C5   -0.020    0.891   -0.699   Cg   394      VTB   0.031000
  8267   H5    0.219    1.829   -0.194   H1   394      VTB   0.000000
  8268   C6   -0.037    1.166   -2.209   Cg   394      VTB   0.349000
  8269  H62   -0.386    0.291   -2.760   H1   394      VTB   0.000000
  8270  H61    0.964    1.418   -2.559   H1   394      VTB   0.000000
  8271   O6   -0.913    2.271   -2.468   Os   394      VTB  -0.454000
  8272   C4    1.016   -0.161   -0.235   Cg   394      VTB   0.314000
  8273   H4    2.023    0.212   -0.425   H1   394      VTB   0.000000
  8274   O4    0.826   -1.372   -0.995   Oh   394      VTB  -0.626000
  8275  H4O    0.938   -1.184   -1.930   Ho   394      VTB   0.413000
  8276   C3    0.846   -0.448    1.276   Cg   394      VTB   0.174000
  8277   H3    1.130    0.464    1.803   H1   394      VTB   0.000000
  8278   C2   -0.597   -0.786    1.715   Cg   394      VTB   0.340000
  8279   H2   -0.652   -0.838    2.804   H1   394      VTB   0.000000
  8280   O2   -0.988   -2.062    1.164   Oh   394      VTB  -0.637000
  8281  H2O   -1.894   -2.254    1.419   Ho   394      VTB   0.397000
  8282   O3    1.761   -1.472    1.706   Os   394      VTB  -0.447000
  8283   C1   -0.461    1.364    0.076   Cg   395      VVA   0.389000
  8284   H1   -0.275    2.167   -0.638   H2   395      VVA   0.000000
  8285   C2   -0.080    0.002   -0.591   Cg   395      VVA   0.399000
  8286   H2    0.931    0.103   -0.990   H1   395      VVA   0.000000
  8287   N2   -0.985   -0.331   -1.718   Ng   395      VVA  -0.595000
  8288  H2N   -1.857   -0.782   -1.493    H   395      VVA   0.238000
  8289  C2N   -0.823    0.175   -2.943    C   395      VVA   0.625000
  8290  CME   -1.904   -0.185   -3.980   Cg   395      VVA   0.032000
  8291  H3M   -2.896    0.017   -3.572   Hc   395      VVA   0.000000
  8292  H2M   -1.771    0.409   -4.885   Hc   395      VVA   0.000000
  8293  H1M   -1.829   -1.243   -4.236   Hc   395      VVA   0.000000
  8294  O2N    0.138    0.883   -3.231    O   395      VVA  -0.605000
  8295   C3   -0.065   -1.141    0.458   Cg   395      VVA   0.176000
  8296   H3   -1.080   -1.280    0.832   H1   395      VVA   0.000000
  8297   C4    0.844   -0.799    1.662   Cg   395      VVA   0.326000
  8298   H4    0.768   -1.593    2.406   H1   395      VVA   0.000000
  8299   C5    0.428    0.544    2.311   Cg   395      VVA   0.112000
  8300   H5   -0.576    0.401    2.715   H1   395      VVA   0.000000
  8301   C6    1.310    0.989    3.495   Cg   395      VVA   0.362000
  8302  H62    0.913    1.903    3.937   H1   395      VVA   0.000000
  8303  H61    1.309    0.215    4.263   H1   395      VVA   0.000000
  8304   O6    2.661    1.223    3.073   Os   395      VVA  -0.481000
  8305   O5    0.337    1.628    1.283   Os   395      VVA  -0.466000
  8306   O4    2.220   -0.731    1.208   Oh   395      VVA  -0.701000
  8307  H4O    2.375   -1.524    0.676   Ho   395      VVA   0.442000
  8308   O3    0.366   -2.414   -0.118   Os   395      VVA  -0.447000
  8309   C1   -1.206    0.662    0.898   Cg   396      VVB   0.305000
  8310   H1   -0.759    0.777    1.886   H2   396      VVB   0.000000
  8311   O5   -1.102    1.951    0.193   Os   396      VVB  -0.408000
  8312   C5    0.281    2.410   -0.138   Cg   396      VVB   0.136000
  8313   H5    0.814    2.578    0.800   H1   396      VVB   0.000000
  8314   C6    0.220    3.747   -0.899   Cg   396      VVB   0.353000
  8315  H62   -0.392    3.656   -1.797   H1   396      VVB   0.000000
  8316  H61    1.222    4.062   -1.193   H1   396      VVB   0.000000
  8317   O6   -0.348    4.746   -0.039   Os   396      VVB  -0.481000
  8318   C4    1.040    1.312   -0.914   Cg   396      VVB   0.253000
  8319   H4    2.079    1.617   -1.046   H1   396      VVB   0.000000
  8320   O4    0.444    1.139   -2.219   Oh   396      VVB  -0.690000
  8321  H4O    0.753    0.297   -2.581   Ho   396      VVB   0.440000
  8322   C3    0.997   -0.036   -0.162   Cg   396      VVB   0.152000
  8323   H3    1.502    0.094    0.797   H1   396      VVB   0.000000
  8324   C2   -0.469   -0.482    0.119   Cg   396      VVB   0.544000
  8325   H2   -0.981   -0.625   -0.834   H1   396      VVB   0.000000
  8326   N2   -0.490   -1.748    0.888   Ng   396      VVB  -0.686000
  8327  H2N   -0.263   -1.711    1.867    H   396      VVB   0.254000
  8328  C2N   -0.829   -2.919    0.343    C   396      VVB   0.586000
  8329  O2N   -1.145   -3.028   -0.837    O   396      VVB  -0.564000
  8330  CME   -0.791   -4.145    1.280   Cg   396      VVB   0.056000
  8331  H3M   -1.102   -3.869    2.289   Hc   396      VVB   0.000000
  8332  H2M   -1.463   -4.920    0.908   Hc   396      VVB   0.000000
  8333  H1M    0.225   -4.543    1.314   Hc   396      VVB   0.000000
  8334   O3    1.763   -1.021   -0.924   Os   396      VVB  -0.444000
  8335   C1   -1.435    1.161   -0.262   Cg   397      VWA   0.462100
  8336   H1   -1.292    1.995   -0.949   H2   397      VWA   0.000000
  8337   C2   -1.003   -0.164   -0.950   Cg   397      VWA   0.275000
  8338   H2   -1.713   -0.377   -1.753   H1   397      VWA   0.000000
  8339   N2    0.335   -0.035   -1.573   Ng   397      VWA  -0.475100
  8340  H2N    1.096   -0.543   -1.152    H   397      VWA   0.214200
  8341  C2N    0.568    0.646   -2.699    C   397      VWA   0.590900
  8342  CME    2.019    0.611   -3.211   Cg   397      VWA  -0.034000
  8343  H3M    2.686    1.037   -2.460   Hc   397      VWA   0.000000
  8344  H2M    2.109    1.191   -4.131   Hc   397      VWA   0.000000
  8345  H1M    2.317   -0.419   -3.413   Hc   397      VWA   0.000000
  8346  O2N   -0.314    1.274   -3.280    O   397      VWA  -0.575700
  8347   C3   -1.052   -1.328    0.071   Cg   397      VWA   0.252000
  8348   H3   -2.093   -1.487    0.359   H1   397      VWA   0.000000
  8349   C4   -0.229   -1.028    1.349   Cg   397      VWA   0.321300
  8350   H4    0.830   -1.031    1.083   H1   397      VWA   0.000000
  8351   C5   -0.591    0.334    1.986   Cg   397      VWA   0.242100
  8352   H5   -1.592    0.248    2.414   H1   397      VWA   0.000000
  8353   C6    0.357    0.752    3.132   Cg   397      VWA   0.299500
  8354  H62    0.113    1.763    3.457   H1   397      VWA   0.000000
  8355  H61    0.224    0.087    3.985   H1   397      VWA   0.000000
  8356   O6    1.742    0.712    2.730   Os   397      VWA  -0.459900
  8357   O5   -0.654    1.416    0.956   Os   397      VWA  -0.541500
  8358   O4   -0.459   -2.079    2.333   Oh   397      VWA  -0.730500
  8359  H4O   -1.400   -2.179    2.518   Ho   397      VWA   0.442400
  8360   O3   -0.570   -2.557   -0.540   Os   397      VWA  -0.476800
  8361   C1   -1.003    0.102    1.803   Cg   398      VWB   0.387000
  8362   H1   -0.521    0.192    2.778   H2   398      VWB   0.000000
  8363   O5   -0.950    1.397    1.123   Os   398      VWB  -0.498000
  8364   C5    0.434    1.913    0.876   Cg   398      VWB   0.321000
  8365   H5    0.916    2.065    1.844   H1   398      VWB   0.000000
  8366   C6    0.338    3.275    0.158   Cg   398      VWB   0.247000
  8367  H62   -0.141    3.152   -0.815   H1   398      VWB   0.000000
  8368  H61    1.332    3.693    0.000   H1   398      VWB   0.000000
  8369   O6   -0.437    4.203    0.944   Os   398      VWB  -0.444000
  8370   C4    1.248    0.872    0.068   Cg   398      VWB   0.277000
  8371   H4    0.864    0.827   -0.953   H1   398      VWB   0.000000
  8372   O4    2.633    1.290    0.024   Oh   398      VWB  -0.743000
  8373  H4O    3.145    0.560   -0.352   Ho   398      VWB   0.439000
  8374   C3    1.170   -0.539    0.706   Cg   398      VWB   0.217000
  8375   H3    1.675   -0.516    1.674   H1   398      VWB   0.000000
  8376   C2   -0.294   -0.988    0.947   Cg   398      VWB   0.294000
  8377   H2   -0.272   -1.909    1.532   H1   398      VWB   0.000000
  8378   N2   -1.004   -1.263   -0.328   Ng   398      VWB  -0.558000
  8379  H2N   -1.517   -0.503   -0.745    H   398      VWB   0.265000
  8380  C2N   -1.026   -2.463   -0.917    C   398      VWB   0.585000
  8381  O2N   -0.380   -3.407   -0.469    O   398      VWB  -0.600000
  8382  CME   -1.870   -2.589   -2.204   Cg   398      VWB   0.056000
  8383  H3M   -2.551   -1.742   -2.315   Hc   398      VWB   0.000000
  8384  H2M   -2.458   -3.507   -2.173   Hc   398      VWB   0.000000
  8385  H1M   -1.204   -2.621   -3.067   Hc   398      VWB   0.000000
  8386   O3    1.877   -1.494   -0.140   Os   398      VWB  -0.439000
  8387   C1   -0.583    1.640    0.007   Cg   399      VYA   0.468000
  8388   H1   -0.414    2.483   -0.663   H2   399      VYA   0.000000
  8389   C2   -0.042    0.344   -0.667   Cg   399      VYA   0.245000
  8390   H2    0.978    0.559   -0.992   H1   399      VYA   0.000000
  8391   N2   -0.832   -0.005   -1.876   Ng   399      VYA  -0.552000
  8392  H2N   -1.806    0.258   -1.858    H   399      VYA   0.236000
  8393  C2N   -0.358   -0.685   -2.926    C   399      VYA   0.588000
  8394  CME   -1.304   -0.864   -4.133   Cg   399      VYA   0.063000
  8395  H3M   -2.258   -0.358   -3.970   Hc   399      VYA   0.000000
  8396  H2M   -0.834   -0.447   -5.026   Hc   399      VYA   0.000000
  8397  H1M   -1.491   -1.926   -4.293   Hc   399      VYA   0.000000
  8398  O2N    0.775   -1.157   -2.923    O   399      VYA  -0.579000
  8399   C3    0.022   -0.842    0.324   Cg   399      VYA   0.165000
  8400   H3   -0.997   -1.158    0.558   H1   399      VYA   0.000000
  8401   C4    0.754   -0.471    1.634   Cg   399      VYA   0.322000
  8402   H4    1.816   -0.345    1.423   H1   399      VYA   0.000000
  8403   C5    0.193    0.814    2.281   Cg   399      VYA   0.246000
  8404   H5   -0.817    0.602    2.637   H1   399      VYA   0.000000
  8405   C6    1.020    1.281    3.499   Cg   399      VYA   0.328000
  8406  H62    0.989    0.526    4.284   H1   399      VYA   0.000000
  8407  H61    0.590    2.198    3.902   H1   399      VYA   0.000000
  8408   O6    2.398    1.530    3.145   Os   399      VYA  -0.461000
  8409   O5    0.081    1.925    1.279   Os   399      VYA  -0.568000
  8410   O4    0.585   -1.568    2.565   Oh   399      VYA  -0.733000
  8411  H4O    0.810   -2.371    2.075   Ho   399      VYA   0.449000
  8412   O3    0.725   -1.963   -0.285   Os   399      VYA  -0.411000
  8413   C1   -1.277    0.571    0.819   Cg   400      VYB   0.287000
  8414   H1   -0.841    0.707    1.810   H2   400      VYB   0.000000
  8415   O5   -1.223    1.852    0.105   Os   400      VYB  -0.433000
  8416   C5    0.150    2.374   -0.161   Cg   400      VYB   0.208000
  8417   H5    0.650    2.530    0.798   H1   400      VYB   0.000000
  8418   C6    0.055    3.726   -0.891   Cg   400      VYB   0.289000
  8419  H62   -0.439    3.602   -1.856   H1   400      VYB   0.000000
  8420  H61    1.049    4.138   -1.065   H1   400      VYB   0.000000
  8421   O6   -0.700    4.657   -0.094   Os   400      VYB  -0.459000
  8422   C4    0.931    1.319   -0.970   Cg   400      VYB   0.302000
  8423   H4    0.481    1.210   -1.959   H1   400      VYB   0.000000
  8424   O4    2.293    1.772   -1.125   Oh   400      VYB  -0.716000
  8425  H4O    2.780    1.054   -1.552   Ho   400      VYB   0.436000
  8426   C3    0.949   -0.053   -0.256   Cg   400      VYB   0.180000
  8427   H3    1.483    0.048    0.691   H1   400      VYB   0.000000
  8428   C2   -0.498   -0.542    0.040   Cg   400      VYB   0.480000
  8429   H2   -1.005   -0.693   -0.915   H1   400      VYB   0.000000
  8430   N2   -0.481   -1.816    0.801   Ng   400      VYB  -0.722000
  8431  H2N   -0.297   -1.766    1.789    H   400      VYB   0.300000
  8432  C2N   -0.893   -2.978    0.288    C   400      VYB   0.648000
  8433  O2N   -1.205   -3.096   -0.892    O   400      VYB  -0.576000
  8434  CME   -0.911   -4.184    1.249   Cg   400      VYB   0.034000
  8435  H3M   -1.231   -3.877    2.247   Hc   400      VYB   0.000000
  8436  H2M   -1.601   -4.945    0.881   Hc   400      VYB   0.000000
  8437  H1M    0.090   -4.613    1.309   Hc   400      VYB   0.000000
  8438   O3    1.690   -0.997   -1.091   Os   400      VYB  -0.452000
  8439   C1   -1.243    1.060    0.690   Cg   401      WAA   0.448000
  8440   H1   -2.253    0.969    1.091   H2   401      WAA   0.000000
  8441   C2   -0.365   -0.074    1.271   Cg   401      WAA   0.268000
  8442   H2   -0.137    0.132    2.319   H1   401      WAA   0.000000
  8443   O2   -1.153   -1.275    1.231   Oh   401      WAA  -0.735000
  8444  H2O   -0.653   -1.999    1.614   Ho   401      WAA   0.443000
  8445   C3    0.939   -0.355    0.495   Cg   401      WAA   0.335000
  8446   H3    1.377   -1.298    0.823   H1   401      WAA   0.000000
  8447   C4    0.694   -0.390   -1.028   Cg   401      WAA   0.245000
  8448   H4    0.099   -1.274   -1.262   H1   401      WAA   0.000000
  8449   C5   -0.054    0.844   -1.542   Cg   401      WAA   0.379000
  8450  H5E   -0.278    0.739   -2.603   H1   401      WAA   0.000000
  8451  H5A    0.543    1.747   -1.405   H1   401      WAA   0.000000
  8452   O5   -1.320    0.973   -0.789   Os   401      WAA  -0.564000
  8453   O4    1.944   -0.505   -1.728   Os   401      WAA  -0.508000
  8454   O3    1.859    0.705    0.822   Os   401      WAA  -0.505000
  8455   C1   -1.413   -0.067    0.915   Cg   402      WAB   0.379000
  8456   H1   -1.057    0.030    1.942   H2   402      WAB   0.000000
  8457   O5   -1.263    1.225    0.239   Os   402      WAB  -0.529000
  8458   C5    0.144    1.668    0.068   Cg   402      WAB   0.356000
  8459  H5E    0.154    2.606   -0.488   H1   402      WAB   0.000000
  8460  H5A    0.584    1.854    1.049   H1   402      WAB   0.000000
  8461   C4    0.952    0.593   -0.696   Cg   402      WAB   0.224000
  8462   H4    0.547    0.516   -1.706   H1   402      WAB   0.000000
  8463   O4    2.350    0.992   -0.809   Os   402      WAB  -0.484000
  8464   C3    0.838   -0.789   -0.001   Cg   402      WAB   0.297000
  8465   H3    1.358   -1.537   -0.601   H1   402      WAB   0.000000
  8466   C2   -0.635   -1.208    0.183   Cg   402      WAB   0.300000
  8467   H2   -0.691   -2.124    0.774   H1   402      WAB   0.000000
  8468   O2   -1.195   -1.482   -1.138   Oh   402      WAB  -0.700000
  8469  H2O   -2.152   -1.545   -1.035   Ho   402      WAB   0.418000
  8470   O3    1.479   -0.733    1.303   Os   402      WAB  -0.455000
  8471   C2   -0.760    0.239    1.008   Cg   403      WBA   0.130000
  8472   C1   -2.222   -0.041    1.474   Cg   403      WBA   0.428000
  8473  H12   -2.217   -0.655    2.376   H1   403      WBA   0.000000
  8474  H11   -2.719    0.899    1.716   H1   403      WBA   0.000000
  8475   O1   -2.990   -0.728    0.464   Oh   403      WBA  -0.678000
  8476  H1O   -2.679   -1.637    0.435   Ho   403      WBA   0.399000
  8477   C3   -0.096   -1.014    0.359   Cg   403      WBA   0.372000
  8478   H3   -0.672   -1.292   -0.526   H1   403      WBA   0.000000
  8479   C4    1.344   -0.694   -0.109   Cg   403      WBA   0.335000
  8480   H4    1.963   -0.424    0.749   H1   403      WBA   0.000000
  8481   C5    1.307    0.471   -1.131   Cg   403      WBA   0.224000
  8482   H5    0.768    0.152   -2.025   H1   403      WBA   0.000000
  8483   C6    0.596    1.714   -0.552   Cg   403      WBA   0.341000
  8484  H6E    0.447    2.456   -1.336   H1   403      WBA   0.000000
  8485  H6A    1.211    2.168    0.226   H1   403      WBA   0.000000
  8486   O6   -0.728    1.353    0.030   Os   403      WBA  -0.507000
  8487   O5    2.657    0.850   -1.519   Oh   403      WBA  -0.690000
  8488  H5O    2.996    0.213   -2.156   Ho   403      WBA   0.429000
  8489   O4    1.925   -1.874   -0.746   Os   403      WBA  -0.497000
  8490   O3   -0.132   -2.154    1.264   Os   403      WBA  -0.480000
  8491   C2   -1.453   -0.197    0.383   Cg   404      WBB   0.227000
  8492   C1   -0.997   -0.044    1.870   Cg   404      WBB   0.281000
  8493  H12   -1.266   -0.933    2.442   H1   404      WBB   0.000000
  8494  H11    0.086    0.067    1.920   H1   404      WBB   0.000000
  8495   O1   -1.601    1.107    2.499   Oh   404      WBB  -0.626000
  8496  H1O   -1.302    1.167    3.410   Ho   404      WBB   0.395000
  8497   O6   -1.288    1.072   -0.365   Os   404      WBB  -0.477000
  8498   C6    0.102    1.507   -0.652   Cg   404      WBB   0.311000
  8499  H6E    0.075    2.417   -1.251   H1   404      WBB   0.000000
  8500  H6A    0.608    1.734    0.287   H1   404      WBB   0.000000
  8501   C5    0.850    0.392   -1.414   Cg   404      WBB   0.340000
  8502   H5    0.432    0.307   -2.418   H1   404      WBB   0.000000
  8503   O5    2.244    0.755   -1.518   Oh   404      WBB  -0.720000
  8504  H5O    2.702   -0.023   -1.861   Ho   404      WBB   0.429000
  8505   C4    0.767   -0.976   -0.701   Cg   404      WBB   0.108000
  8506   H4    1.332   -0.930    0.233   H1   404      WBB   0.000000
  8507   O4    1.370   -1.996   -1.553   Os   404      WBB  -0.434000
  8508   C3   -0.707   -1.338   -0.382   Cg   404      WBB   0.464000
  8509   H3   -1.226   -1.524   -1.324   H1   404      WBB   0.000000
  8510   O3   -0.726   -2.565    0.395   Os   404      WBB  -0.492000
  8511   C2   -0.782    0.134    1.081   Cg   405      WCA   0.345000
  8512   C1   -2.294   -0.144    1.383   Cg   405      WCA   0.386000
  8513  H12   -2.377   -0.975    2.085   H1   405      WCA   0.000000
  8514  H11   -2.751    0.730    1.850   H1   405      WCA   0.000000
  8515   O1   -3.051   -0.473    0.196   Oh   405      WCA  -0.696000
  8516  H1O   -2.482   -1.035   -0.349   Ho   405      WCA   0.402000
  8517   C3   -0.000   -1.132    0.564   Cg   405      WCA   0.247000
  8518   H3    0.163   -1.809    1.405   H1   405      WCA   0.000000
  8519   C4    1.368   -0.790   -0.081   Cg   405      WCA   0.367000
  8520   H4    1.736   -1.669   -0.612   H1   405      WCA   0.000000
  8521   C5    1.270    0.380   -1.083   Cg   405      WCA   0.195000
  8522   H5    0.592    0.093   -1.888   H1   405      WCA   0.000000
  8523   C6    0.696    1.619   -0.373   Cg   405      WCA   0.437000
  8524  H6E    0.599    2.441   -1.082   H1   405      WCA   0.000000
  8525  H6A    1.354    1.946    0.433   H1   405      WCA   0.000000
  8526   O6   -0.644    1.302    0.177   Os   405      WCA  -0.620000
  8527   O5    2.573    0.662   -1.682   Oh   405      WCA  -0.709000
  8528  H5O    2.469    1.078   -2.546   Ho   405      WCA   0.415000
  8529   O4    2.341   -0.482    0.950   Os   405      WCA  -0.520000
  8530   O3   -0.779   -1.877   -0.429   Os   405      WCA  -0.443000
  8531   C2   -1.427   -0.264    0.338   Cg   406      WCB   0.244000
  8532   C1   -1.019   -0.080    1.835   Cg   406      WCB   0.297000
  8533  H12   -1.196   -1.004    2.388   H1   406      WCB   0.000000
  8534  H11    0.039    0.160    1.921   H1   406      WCB   0.000000
  8535   O1   -1.765    0.988    2.466   Oh   406      WCB  -0.669000
  8536  H1O   -1.474    1.087    3.376   Ho   406      WCB   0.401000
  8537   O6   -1.270    1.001   -0.415   Os   406      WCB  -0.460000
  8538   C6    0.113    1.446   -0.705   Cg   406      WCB   0.365000
  8539  H6E    0.074    2.366   -1.289   H1   406      WCB   0.000000
  8540  H6A    0.631    1.661    0.230   H1   406      WCB   0.000000
  8541   C5    0.849    0.350   -1.496   Cg   406      WCB   0.195000
  8542   H5    0.350    0.242   -2.460   H1   406      WCB   0.000000
  8543   O5    2.225    0.753   -1.757   Oh   406      WCB  -0.684000
  8544  H5O    2.756    0.590   -0.968   Ho   406      WCB   0.415000
  8545   C4    0.807   -1.018   -0.769   Cg   406      WCB   0.344000
  8546   H4    1.224   -1.777   -1.432   H1   406      WCB   0.000000
  8547   O4    1.646   -0.976    0.423   Os   406      WCB  -0.475000
  8548   C3   -0.638   -1.420   -0.373   Cg   406      WCB   0.317000
  8549   H3   -0.610   -2.293    0.281   H1   406      WCB   0.000000
  8550   O3   -1.317   -1.811   -1.596   Os   406      WCB  -0.484000
  8551   C1   -0.802    1.343   -0.654   Cg   407      WDA   0.398000
  8552   H1   -0.630    2.145   -1.372   H2   407      WDA   0.000000
  8553   C2   -0.311   -0.006   -1.263   Cg   407      WDA   0.246000
  8554   H2   -0.975   -0.297   -2.079   H1   407      WDA   0.000000
  8555   O2    1.028    0.167   -1.814   Oh   407      WDA  -0.678000
  8556  H2O    1.005    0.726   -2.596   Ho   407      WDA   0.432000
  8557   C3   -0.308   -1.118   -0.186   Cg   407      WDA   0.184000
  8558   H3   -1.338   -1.269    0.142   H1   407      WDA   0.000000
  8559   C4    0.541   -0.703    1.037   Cg   407      WDA   0.351000
  8560   H4    1.586   -0.586    0.749   H1   407      WDA   0.000000
  8561   C5    0.010    0.618    1.632   Cg   407      WDA   0.275000
  8562  H5E    0.674    0.964    2.423   H1   407      WDA   0.000000
  8563  H5A   -0.976    0.456    2.072   H1   407      WDA   0.000000
  8564   O5   -0.104    1.682    0.595   Os   407      WDA  -0.487000
  8565   O4    0.444   -1.734    2.048   Os   407      WDA  -0.483000
  8566   O3    0.156   -2.388   -0.734   Os   407      WDA  -0.432000
  8567   C1    0.886    0.827    1.194   Cg   408      WDB   0.448000
  8568   H1    1.071    1.774    0.684   H2   408      WDB   0.000000
  8569   O5   -0.559    0.731    1.499   Os   408      WDB  -0.519000
  8570   C5   -1.455    0.793    0.322   Cg   408      WDB   0.275000
  8571  H5E   -2.486    0.670    0.652   H1   408      WDB   0.000000
  8572  H5A   -1.360    1.779   -0.138   H1   408      WDB   0.000000
  8573   C4   -1.082   -0.310   -0.684   Cg   408      WDB   0.335000
  8574   H4   -1.387   -1.280   -0.289   H1   408      WDB   0.000000
  8575   O4   -1.808   -0.040   -1.893   Os   408      WDB  -0.467000
  8576   C3    0.428   -0.310   -1.001   Cg   408      WDB   0.201000
  8577   H3    0.676    0.596   -1.558   H1   408      WDB   0.000000
  8578   C2    1.297   -0.342    0.274   Cg   408      WDB   0.226000
  8579   H2    2.353   -0.262    0.010   H1   408      WDB   0.000000
  8580   O2    1.075   -1.586    0.976   Oh   408      WDB  -0.645000
  8581  H2O    1.598   -1.597    1.780   Ho   408      WDB   0.415000
  8582   O3    0.753   -1.443   -1.828   Os   408      WDB  -0.463000
  8583   C1   -0.725    0.950    1.482   Cg   409      WEA   0.480000
  8584   H1   -1.659    1.013    2.041   H2   409      WEA   0.000000
  8585   C2    0.091   -0.258    1.994   Cg   409      WEA   0.179000
  8586   H2    0.508   -0.036    2.978   H1   409      WEA   0.000000
  8587   O2   -0.832   -1.348    2.153   Oh   409      WEA  -0.690000
  8588  H2O   -1.529   -1.091    2.761   Ho   409      WEA   0.447000
  8589   C3    1.207   -0.736    1.045   Cg   409      WEA   0.328000
  8590   H3    1.581   -1.709    1.366   H1   409      WEA   0.000000
  8591   C4    0.720   -0.819   -0.418   Cg   409      WEA   0.261000
  8592   H4   -0.001   -1.635   -0.491   H1   409      WEA   0.000000
  8593   C5    0.040    0.476   -0.904   Cg   409      WEA   0.374000
  8594   H5    0.768    1.290   -0.893   H1   409      WEA   0.000000
  8595   C6   -0.572    0.371   -2.308   Cg   409      WEA   0.259000
  8596  H62    0.183    0.068   -3.033   H1   409      WEA   0.000000
  8597  H61   -1.379   -0.363   -2.323   H1   409      WEA   0.000000
  8598   O6   -1.087    1.654   -2.688   Oh   409      WEA  -0.663000
  8599  H6O   -0.375    2.297   -2.688   Ho   409      WEA   0.406000
  8600   O5   -1.055    0.798    0.045   Os   409      WEA  -0.587000
  8601   O4    1.832   -1.139   -1.273   Os   409      WEA  -0.500000
  8602   O3    2.284    0.216    1.152   Os   409      WEA  -0.488000
  8603   C1   -1.335   -0.771    1.076   Cg   410      WEB   0.488000
  8604   H1   -0.959   -0.668    2.094   H2   410      WEB   0.000000
  8605   O5   -1.200    0.516    0.383   Os   410      WEB  -0.532000
  8606   C5    0.213    0.973    0.169   Cg   410      WEB   0.257000
  8607   H5    0.671    1.143    1.146   H1   410      WEB   0.000000
  8608   C6    0.201    2.307   -0.603   Cg   410      WEB   0.278000
  8609  H62   -0.250    2.167   -1.587   H1   410      WEB   0.000000
  8610  H61    1.216    2.680   -0.741   H1   410      WEB   0.000000
  8611   O6   -0.560    3.289    0.123   Oh   410      WEB  -0.677000
  8612  H6O   -1.411    2.900    0.347   Ho   410      WEB   0.408000
  8613   C4    1.010   -0.124   -0.580   Cg   410      WEB   0.320000
  8614   H4    0.602   -0.224   -1.587   H1   410      WEB   0.000000
  8615   O4    2.410    0.257   -0.708   Os   410      WEB  -0.498000
  8616   C3    0.894   -1.495    0.142   Cg   410      WEB   0.315000
  8617   H3    1.416   -2.254   -0.442   H1   410      WEB   0.000000
  8618   C2   -0.579   -1.909    0.322   Cg   410      WEB   0.184000
  8619   H2   -0.636   -2.830    0.903   H1   410      WEB   0.000000
  8620   O2   -1.136   -2.169   -1.005   Oh   410      WEB  -0.697000
  8621  H2O   -2.079   -2.356   -0.907   Ho   410      WEB   0.432000
  8622   O3    1.512   -1.434    1.457   Os   410      WEB  -0.472000
  8623   C1   -0.770    1.352   -1.039   Cg   411      WFA   0.399000
  8624   H1   -0.543    2.211   -1.671   H2   411      WFA   0.000000
  8625   C2   -0.259    0.049   -1.741   Cg   411      WFA   0.456000
  8626   H2    0.807    0.174   -1.936   H1   411      WFA   0.000000
  8627   O2   -0.904   -0.169   -3.036   Oh   411      WFA  -0.804000
  8628  H2O   -0.325   -0.713   -3.578   Ho   411      WFA   0.453000
  8629   C3   -0.461   -1.167   -0.802   Cg   411      WFA   0.228000
  8630   H3   -1.524   -1.279   -0.581   H1   411      WFA   0.000000
  8631   C4    0.297   -0.939    0.529   Cg   411      WFA   0.263000
  8632   H4    0.083   -1.768    1.206   H1   411      WFA   0.000000
  8633   C5   -0.139    0.387    1.211   Cg   411      WFA   0.187000
  8634   H5   -1.175    0.260    1.529   H1   411      WFA   0.000000
  8635   C6    0.667    0.776    2.453   Cg   411      WFA   0.065000
  8636  H63    0.655   -0.020    3.198   Hc   411      WFA   0.000000
  8637  H62    0.255    1.668    2.927   Hc   411      WFA   0.000000
  8638  H61    1.710    0.987    2.213   Hc   411      WFA   0.000000
  8639   O5   -0.097    1.538    0.257   Os   411      WFA  -0.494000
  8640   O4    1.725   -0.928    0.269   Os   411      WFA  -0.486000
  8641   O3   -0.004   -2.419   -1.409   Os   411      WFA  -0.461000
  8642   C1   -1.432    0.436    1.049   Cg   412      WFB   0.418000
  8643   H1   -1.132    1.402    1.456   H2   412      WFB   0.000000
  8644   O5   -1.336    0.498   -0.426   Os   412      WFB  -0.442000
  8645   C5    0.024    0.663   -0.989   Cg   412      WFB   0.106000
  8646   H5    0.457    1.577   -0.578   H1   412      WFB   0.000000
  8647   C6   -0.106    0.857   -2.502   Cg   412      WFB   0.092000
  8648  H63    0.872    0.984   -2.969   Hc   412      WFB   0.000000
  8649  H62   -0.593    0.007   -2.984   Hc   412      WFB   0.000000
  8650  H61   -0.694    1.745   -2.736   Hc   412      WFB   0.000000
  8651   C4    0.896   -0.529   -0.540   Cg   412      WFB   0.229000
  8652   H4    1.915   -0.401   -0.907   H1   412      WFB   0.000000
  8653   O4    0.345   -1.742   -1.099   Os   412      WFB  -0.430000
  8654   C3    0.898   -0.618    0.999   Cg   412      WFB   0.255000
  8655   H3    1.406    0.269    1.385   H1   412      WFB   0.000000
  8656   C2   -0.521   -0.684    1.599   Cg   412      WFB   0.346000
  8657   H2   -0.965   -1.661    1.397   H1   412      WFB   0.000000
  8658   O2   -0.408   -0.495    3.021   Oh   412      WFB  -0.765000
  8659  H2O   -1.281   -0.534    3.418   Ho   412      WFB   0.440000
  8660   O3    1.655   -1.773    1.407   Os   412      WFB  -0.443000
  8661   C1   -0.836   -0.622    1.605   Cg   413      WGA   0.509000
  8662   H1   -1.745   -0.982    2.086   H2   413      WGA   0.000000
  8663   C2   -0.120   -1.800    0.883   Cg   413      WGA   0.246000
  8664   H2   -0.858   -2.296    0.250   H1   413      WGA   0.000000
  8665   O2    0.384   -2.789    1.839   Oh   413      WGA  -0.713000
  8666  H2O    0.755   -2.330    2.604   Ho   413      WGA   0.437000
  8667   C3    1.030   -1.296   -0.014   Cg   413      WGA   0.286000
  8668   H3    1.839   -0.920    0.616   H1   413      WGA   0.000000
  8669   C4    0.567   -0.183   -0.984   Cg   413      WGA   0.254000
  8670   H4   -0.139   -0.600   -1.705   H1   413      WGA   0.000000
  8671   C5   -0.104    0.979   -0.224   Cg   413      WGA   0.283000
  8672   H5    0.649    1.455    0.407   H1   413      WGA   0.000000
  8673   C6   -0.693    2.047   -1.173   Cg   413      WGA   0.276000
  8674  H62    0.020    2.299   -1.958   H1   413      WGA   0.000000
  8675  H61   -1.597    1.666   -1.650   H1   413      WGA   0.000000
  8676   O6   -1.009    3.257   -0.452   Oh   413      WGA  -0.682000
  8677  H6O   -0.207    3.760   -0.294   Ho   413      WGA   0.418000
  8678   O5   -1.188    0.439    0.662   Os   413      WGA  -0.574000
  8679   O4    1.721    0.326   -1.702   Os   413      WGA  -0.468000
  8680   O3    1.530   -2.413   -0.795   Os   413      WGA  -0.466000
  8681   C1   -1.302   -0.789    0.990   Cg   414      WGB   0.384000
  8682   H1   -0.907   -0.677    2.001   H2   414      WGB   0.000000
  8683   O5   -1.241    0.504    0.302   Os   414      WGB  -0.471000
  8684   C5    0.135    1.041    0.071   Cg   414      WGB   0.225000
  8685   H5    0.619    1.174    1.042   H1   414      WGB   0.000000
  8686   C6    0.037    2.414   -0.621   Cg   414      WGB   0.282000
  8687  H62   -0.432    2.310   -1.600   H1   414      WGB   0.000000
  8688  H61    1.028    2.846   -0.759   H1   414      WGB   0.000000
  8689   O6   -0.754    3.310    0.183   Oh   414      WGB  -0.688000
  8690  H6O   -1.594    2.882    0.374   Ho   414      WGB   0.424000
  8691   C4    0.939    0.017   -0.758   Cg   414      WGB   0.276000
  8692   H4    0.510   -0.053   -1.760   H1   414      WGB   0.000000
  8693   O4    2.308    0.474   -0.868   Os   414      WGB  -0.468000
  8694   C3    0.923   -1.381   -0.094   Cg   414      WGB   0.284000
  8695   H3    1.482   -1.338    0.843   H1   414      WGB   0.000000
  8696   C2   -0.513   -1.870    0.199   Cg   414      WGB   0.310000
  8697   H2   -1.026   -2.072   -0.743   H1   414      WGB   0.000000
  8698   O2   -0.445   -3.105    0.971   Oh   414      WGB  -0.718000
  8699  H2O   -1.347   -3.361    1.206   Ho   414      WGB   0.437000
  8700   O3    1.580   -2.328   -0.980   Os   414      WGB  -0.471000
  8701   C1   -0.719    1.444   -1.104   Cg   415      WHA   0.394000
  8702   H1   -0.378    2.289   -1.702   H2   415      WHA   0.000000
  8703   C2   -0.359    0.120   -1.834   Cg   415      WHA   0.248000
  8704   H2   -0.985    0.011   -2.721   H1   415      WHA   0.000000
  8705   O2    1.030    0.165   -2.268   Oh   415      WHA  -0.670000
  8706  H2O    1.252   -0.718   -2.586   Ho   415      WHA   0.421000
  8707   C3   -0.575   -1.093   -0.902   Cg   415      WHA   0.236000
  8708   H3   -1.644   -1.188   -0.703   H1   415      WHA   0.000000
  8709   C4    0.172   -0.941    0.442   Cg   415      WHA   0.187000
  8710   H4    1.248   -0.938    0.267   H1   415      WHA   0.000000
  8711   C5   -0.249    0.373    1.146   Cg   415      WHA   0.279000
  8712   H5   -1.301    0.301    1.430   H1   415      WHA   0.000000
  8713   C6    0.568    0.693    2.399   Cg   415      WHA   0.023000
  8714  H63    0.461   -0.084    3.156   Hc   415      WHA   0.000000
  8715  H62    0.245    1.630    2.855   Hc   415      WHA   0.000000
  8716  H61    1.632    0.788    2.174   Hc   415      WHA   0.000000
  8717   O5   -0.097    1.532    0.228   Os   415      WHA  -0.461000
  8718   O4   -0.161   -2.076    1.292   Os   415      WHA  -0.433000
  8719   O3   -0.140   -2.307   -1.569   Os   415      WHA  -0.418000
  8720   C1   -1.812   -0.475   -0.590   Cg   416      WHB   0.381000
  8721   H1   -1.601   -1.222   -1.356   H2   416      WHB   0.000000
  8722   O5   -1.111   -0.863    0.653   Os   416      WHB  -0.427000
  8723   C5    0.362   -0.995    0.548   Cg   416      WHB   0.172000
  8724   H5    0.578   -1.804   -0.153   H1   416      WHB   0.000000
  8725  C6M    0.877   -1.400    1.931   Cg   416      WHB   0.039000
  8726  H1M    0.410   -2.325    2.271   Hc   416      WHB   0.000000
  8727  H2M    0.670   -0.633    2.679   Hc   416      WHB   0.000000
  8728  H3M    1.955   -1.568    1.921   Hc   416      WHB   0.000000
  8729   C4    0.967    0.323    0.007   Cg   416      WHB   0.388000
  8730   H4    0.940    1.088    0.785   H1   416      WHB   0.000000
  8731   O4    2.334    0.059   -0.352   Os   416      WHB  -0.490000
  8732   C3    0.229    0.827   -1.251   Cg   416      WHB   0.182000
  8733   H3    0.430    0.144   -2.080   H1   416      WHB   0.000000
  8734   C2   -1.298    0.902   -1.055   Cg   416      WHB   0.243000
  8735   H2   -1.783    1.191   -1.989   H1   416      WHB   0.000000
  8736   O2   -1.603    1.884   -0.038   Oh   416      WHB  -0.673000
  8737  H2O   -1.268    2.741   -0.312   Ho   416      WHB   0.432000
  8738   O3    0.725    2.128   -1.619   Os   416      WHB  -0.441000
  8739   C2   -0.743    0.150    1.084   Cg   417      WJA   0.114000
  8740   C1   -2.187   -0.179    1.581   Cg   417      WJA   0.410000
  8741  H12   -2.154   -1.014    2.283   H1   417      WJA   0.000000
  8742  H11   -2.616    0.679    2.099   H1   417      WJA   0.000000
  8743   O1   -3.047   -0.532    0.485   Oh   417      WJA  -0.656000
  8744  H1O   -2.473   -0.965   -0.166   Ho   417      WJA   0.405000
  8745   C3   -0.005   -1.076    0.461   Cg   417      WJA   0.271000
  8746   H3    0.155   -1.834    1.229   H1   417      WJA   0.000000
  8747   C4    1.366   -0.659   -0.131   Cg   417      WJA   0.281000
  8748   H4    2.011   -0.317    0.679   H1   417      WJA   0.000000
  8749   C5    1.212    0.483   -1.163   Cg   417      WJA   0.273000
  8750   H5    0.634    0.135   -2.020   H1   417      WJA   0.000000
  8751   C6    0.501    1.694   -0.527   Cg   417      WJA   0.368000
  8752  H6E    0.280    2.439   -1.291   H1   417      WJA   0.000000
  8753  H6A    1.151    2.159    0.216   H1   417      WJA   0.000000
  8754   O6   -0.769    1.291    0.138   Os   417      WJA  -0.504000
  8755   O5    2.523    0.904   -1.626   Oh   417      WJA  -0.699000
  8756  H5O    2.975    0.132   -1.987   Ho   417      WJA   0.419000
  8757   O4    2.004   -1.819   -0.746   Os   417      WJA  -0.453000
  8758   O3   -0.816   -1.669   -0.596   Os   417      WJA  -0.423000
  8759   C2   -1.388   -0.144    0.485   Cg   418      WJB   0.413000
  8760   C1   -0.800   -0.047    1.932   Cg   418      WJB   0.280000
  8761  H12   -1.174   -0.872    2.539   H1   418      WJB   0.000000
  8762  H11    0.285   -0.128    1.908   H1   418      WJB   0.000000
  8763   O1   -1.130    1.197    2.588   Oh   418      WJB  -0.722000
  8764  H1O   -2.052    1.398    2.388   Ho   418      WJB   0.432000
  8765   O6   -1.184    1.102   -0.295   Os   418      WJB  -0.551000
  8766   C6    0.208    1.429   -0.694   Cg   418      WJB   0.292000
  8767  H6E    0.197    2.315   -1.329   H1   418      WJB   0.000000
  8768  H6A    0.783    1.666    0.202   H1   418      WJB   0.000000
  8769   C5    0.862    0.247   -1.447   Cg   418      WJB   0.374000
  8770   H5    0.411    0.163   -2.437   H1   418      WJB   0.000000
  8771   O5    2.285    0.505   -1.604   Oh   418      WJB  -0.729000
  8772  H5O    2.693    0.717   -0.759   Ho   418      WJB   0.426000
  8773   C4    0.689   -1.092   -0.684   Cg   418      WJB   0.155000
  8774   H4    1.273   -1.041    0.235   H1   418      WJB   0.000000
  8775   O4    1.214   -2.208   -1.464   Os   418      WJB  -0.440000
  8776   C3   -0.792   -1.358   -0.309   Cg   418      WJB   0.363000
  8777   H3   -0.858   -2.263    0.297   H1   418      WJB   0.000000
  8778   O3   -1.523   -1.584   -1.553   Os   418      WJB  -0.487000
  8779   C1   -0.947    0.815    1.408   Cg   419      WKA   0.473000
  8780   H1   -1.880    0.840    1.970   H2   419      WKA   0.000000
  8781   C2   -0.087   -0.363    1.916   Cg   419      WKA   0.281000
  8782   H2   -0.736   -1.240    1.916   H1   419      WKA   0.000000
  8783   O2    0.312   -0.153    3.282   Oh   419      WKA  -0.716000
  8784  H2O    0.873    0.625    3.335   Ho   419      WKA   0.427000
  8785   C3    1.132   -0.715    1.035   Cg   419      WKA   0.354000
  8786   H3    1.583   -1.646    1.382   H1   419      WKA   0.000000
  8787   C4    0.731   -0.839   -0.447   Cg   419      WKA   0.196000
  8788   H4    1.626   -0.926   -1.065   H1   419      WKA   0.000000
  8789   C5   -0.123    0.353   -0.947   Cg   419      WKA   0.301000
  8790   H5    0.512    1.240   -0.926   H1   419      WKA   0.000000
  8791   C6   -0.668    0.204   -2.374   Cg   419      WKA   0.287000
  8792  H62    0.143   -0.029   -3.065   H1   419      WKA   0.000000
  8793  H61   -1.408   -0.596   -2.427   H1   419      WKA   0.000000
  8794   O6   -1.276    1.440   -2.771   Oh   419      WKA  -0.691000
  8795  H6O   -0.623    2.143   -2.738   Ho   419      WKA   0.422000
  8796   O5   -1.265    0.581   -0.019   Os   419      WKA  -0.540000
  8797   O4   -0.024   -2.058   -0.587   Os   419      WKA  -0.486000
  8798   O3    2.125    0.324    1.123   Os   419      WKA  -0.502000
  8799   C1   -1.312   -0.685    1.042   Cg   420      WKB   0.449000
  8800   H1   -0.918   -0.535    2.048   H2   420      WKB   0.000000
  8801   O5   -1.221    0.567    0.287   Os   420      WKB  -0.514000
  8802   C5    0.174    1.025   -0.015   Cg   420      WKB   0.303000
  8803   H5    0.676    1.221    0.935   H1   420      WKB   0.000000
  8804   C6    0.120    2.353   -0.796   Cg   420      WKB   0.259000
  8805  H62   -0.446    2.231   -1.719   H1   420      WKB   0.000000
  8806  H61    1.129    2.677   -1.054   H1   420      WKB   0.000000
  8807   O6   -0.504    3.376    0.004   Oh   420      WKB  -0.670000
  8808  H6O   -1.384    3.072    0.248   Ho   420      WKB   0.416000
  8809   C4    0.973   -0.083   -0.754   Cg   420      WKB   0.217000
  8810   H4    2.016    0.228   -0.835   H1   420      WKB   0.000000
  8811   O4    0.464   -0.279   -2.103   Os   420      WKB  -0.469000
  8812   C3    0.896   -1.426    0.006   Cg   420      WKB   0.253000
  8813   H3    1.373   -2.206   -0.589   H1   420      WKB   0.000000
  8814   C2   -0.564   -1.838    0.309   Cg   420      WKB   0.308000
  8815   H2   -1.069   -2.041   -0.637   H1   420      WKB   0.000000
  8816   O2   -0.566   -3.071    1.093   Oh   420      WKB  -0.710000
  8817  H2O   -1.483   -3.300    1.288   Ho   420      WKB   0.426000
  8818   O3    1.646   -1.285    1.242   Os   420      WKB  -0.462000
  8819   C1   -1.005    0.779    1.382   Cg   421      WLA   0.465000
  8820   H1   -1.956    0.791    1.914   H2   421      WLA   0.000000
  8821   C2   -0.141   -0.387    1.919   Cg   421      WLA   0.339000
  8822   H2   -0.759   -1.286    1.932   H1   421      WLA   0.000000
  8823   O2    0.254   -0.104    3.274   Oh   421      WLA  -0.724000
  8824  H2O    0.782    0.698    3.292   Ho   421      WLA   0.431000
  8825   C3    1.104   -0.646    1.048   Cg   421      WLA   0.253000
  8826   H3    1.781    0.206    1.129   H1   421      WLA   0.000000
  8827   C4    0.731   -0.839   -0.438   Cg   421      WLA   0.204000
  8828   H4    1.639   -0.940   -1.035   H1   421      WLA   0.000000
  8829   C5   -0.095    0.363   -0.946   Cg   421      WLA   0.216000
  8830   H5    0.539    1.250   -0.878   H1   421      WLA   0.000000
  8831   C6   -0.579    0.246   -2.398   Cg   421      WLA   0.308000
  8832  H62    0.260    0.033   -3.060   H1   421      WLA   0.000000
  8833  H61   -1.314   -0.554   -2.501   H1   421      WLA   0.000000
  8834   O6   -1.175    1.490   -2.789   Oh   421      WLA  -0.684000
  8835  H6O   -0.527    2.194   -2.712   Ho   421      WLA   0.418000
  8836   O5   -1.275    0.560   -0.059   Os   421      WLA  -0.527000
  8837   O4   -0.063   -2.036   -0.592   Os   421      WLA  -0.431000
  8838   O3    1.799   -1.817    1.517   Os   421      WLA  -0.462000
  8839   C1   -1.302   -0.771    1.008   Cg   422      WLB   0.374000
  8840   H1   -0.909   -0.663    2.019   H2   422      WLB   0.000000
  8841   O5   -1.226    0.530    0.329   Os   422      WLB  -0.402000
  8842   C5    0.150    1.039    0.042   Cg   422      WLB   0.140000
  8843   H5    0.666    1.174    0.995   H1   422      WLB   0.000000
  8844   C6    0.064    2.410   -0.651   Cg   422      WLB   0.319000
  8845  H62   -0.528    2.347   -1.565   H1   422      WLB   0.000000
  8846  H61    1.061    2.768   -0.908   H1   422      WLB   0.000000
  8847   O6   -0.552    3.350    0.245   Oh   422      WLB  -0.693000
  8848  H6O   -1.421    3.010    0.476   Ho   422      WLB   0.419000
  8849   C4    0.943   -0.006   -0.775   Cg   422      WLB   0.203000
  8850   H4    1.975    0.329   -0.885   H1   422      WLB   0.000000
  8851   O4    0.360   -0.135   -2.096   Os   422      WLB  -0.421000
  8852   C3    0.926   -1.378   -0.063   Cg   422      WLB   0.259000
  8853   H3    1.461   -1.276    0.883   H1   422      WLB   0.000000
  8854   C2   -0.512   -1.867    0.232   Cg   422      WLB   0.357000
  8855   H2   -1.024   -2.093   -0.706   H1   422      WLB   0.000000
  8856   O2   -0.438   -3.084    1.032   Oh   422      WLB  -0.726000
  8857  H2O   -1.339   -3.338    1.265   Ho   422      WLB   0.432000
  8858   O3    1.644   -2.346   -0.877   Os   422      WLB  -0.455000
  8859   C1   -0.904   -0.559    1.719   Cg   423      WMA   0.433000
  8860   H1   -1.869   -0.875    2.114   H2   423      WMA   0.000000
  8861   C2   -0.198   -1.765    1.037   Cg   423      WMA   0.245000
  8862   H2    0.106   -2.484    1.799   H1   423      WMA   0.000000
  8863   O2   -1.123   -2.437    0.130   Oh   423      WMA  -0.717000
  8864  H2O   -0.622   -3.046   -0.426   Ho   423      WMA   0.446000
  8865   C3    1.049   -1.294    0.255   Cg   423      WMA   0.252000
  8866   H3    1.776   -0.899    0.968   H1   423      WMA   0.000000
  8867   C4    0.697   -0.181   -0.763   Cg   423      WMA   0.326000
  8868   H4    0.025   -0.575   -1.526   H1   423      WMA   0.000000
  8869   C5    0.035    1.020   -0.049   Cg   423      WMA   0.276000
  8870   H5    0.774    1.472    0.616   H1   423      WMA   0.000000
  8871   C6   -0.452    2.094   -1.045   Cg   423      WMA   0.266000
  8872  H62    0.321    2.312   -1.782   H1   423      WMA   0.000000
  8873  H61   -1.334    1.736   -1.580   H1   423      WMA   0.000000
  8874   O6   -0.777    3.324   -0.362   Oh   423      WMA  -0.688000
  8875  H6O    0.028    3.762   -0.076   Ho   423      WMA   0.422000
  8876   O5   -1.118    0.559    0.788   Os   423      WMA  -0.507000
  8877   O4    1.920    0.271   -1.401   Os   423      WMA  -0.489000
  8878   O3    1.666   -2.435   -0.416   Os   423      WMA  -0.459000
  8879   C1   -1.258   -0.814    1.167   Cg   424      WMB   0.314000
  8880   H1   -0.776   -0.772    2.145   H2   424      WMB   0.000000
  8881   O5   -1.150    0.506    0.530   Os   424      WMB  -0.393000
  8882   C5    0.239    0.965    0.207   Cg   424      WMB   0.206000
  8883   H5    0.763    1.132    1.151   H1   424      WMB   0.000000
  8884   C6    0.160    2.301   -0.553   Cg   424      WMB   0.273000
  8885  H62   -0.362    2.165   -1.502   H1   424      WMB   0.000000
  8886  H61    1.159    2.681   -0.764   H1   424      WMB   0.000000
  8887   O6   -0.549    3.272    0.237   Oh   424      WMB  -0.680000
  8888  H6O   -1.413    2.910    0.459   Ho   424      WMB   0.419000
  8889   C4    1.003   -0.115   -0.601   Cg   424      WMB   0.349000
  8890   H4    0.594   -0.180   -1.610   H1   424      WMB   0.000000
  8891   O4    2.397    0.281   -0.690   Os   424      WMB  -0.497000
  8892   C3    0.898   -1.495    0.105   Cg   424      WMB   0.263000
  8893   H3    1.347   -1.414    1.096   H1   424      WMB   0.000000
  8894   C2   -0.584   -1.902    0.286   Cg   424      WMB   0.241000
  8895   H2   -0.647   -2.872    0.782   H1   424      WMB   0.000000
  8896   O2   -1.260   -1.981   -1.004   Oh   424      WMB  -0.664000
  8897  H2O   -2.195   -2.140   -0.833   Ho   424      WMB   0.431000
  8898   O3    1.634   -2.530   -0.609   Os   424      WMB  -0.456000
  8899   C1   -0.895    0.905    1.403   Cg   425      WNA   0.478000
  8900   H1   -1.842    0.999    1.936   H2   425      WNA   0.000000
  8901   C2   -0.159   -0.355    1.908   Cg   425      WNA   0.228000
  8902   H2   -0.875   -1.176    1.857   H1   425      WNA   0.000000
  8903   O2    0.202   -0.212    3.294   Oh   425      WNA  -0.668000
  8904  H2O    0.837    0.502    3.386   Ho   425      WNA   0.415000
  8905   C3    1.063   -0.776    1.068   Cg   425      WNA   0.330000
  8906   H3    1.446   -1.735    1.421   H1   425      WNA   0.000000
  8907   C4    0.629   -0.892   -0.408   Cg   425      WNA   0.167000
  8908   H4   -0.068   -1.727   -0.490   H1   425      WNA   0.000000
  8909   C5   -0.065    0.377   -0.952   Cg   425      WNA   0.404000
  8910   H5    0.653    1.200   -0.961   H1   425      WNA   0.000000
  8911   C6   -0.649    0.207   -2.361   Cg   425      WNA   0.280000
  8912  H62    0.125   -0.112   -3.060   H1   425      WNA   0.000000
  8913  H61   -1.443   -0.541   -2.361   H1   425      WNA   0.000000
  8914   O6   -1.179    1.464   -2.802   Oh   425      WNA  -0.663000
  8915  H6O   -0.478    2.119   -2.818   Ho   425      WNA   0.396000
  8916   O5   -1.185    0.734   -0.038   Os   425      WNA  -0.611000
  8917   O4    1.779   -1.199   -1.217   Os   425      WNA  -0.483000
  8918   O3    2.104    0.218    1.195   Os   425      WNA  -0.467000
  8919   C1   -1.308   -0.711    1.044   Cg   426      WNB   0.422000
  8920   H1   -0.907   -0.589    2.053   H2   426      WNB   0.000000
  8921   O5   -1.214    0.568    0.326   Os   426      WNB  -0.507000
  8922   C5    0.173    1.035    0.000   Cg   426      WNB   0.198000
  8923   H5    0.711    1.197    0.935   H1   426      WNB   0.000000
  8924   C6    0.102    2.377   -0.754   Cg   426      WNB   0.313000
  8925  H62   -0.428    2.254   -1.698   H1   426      WNB   0.000000
  8926  H61    1.102    2.755   -0.964   H1   426      WNB   0.000000
  8927   O6   -0.598    3.337    0.056   Oh   426      WNB  -0.689000
  8928  H6O   -1.400    2.917    0.381   Ho   426      WNB   0.418000
  8929   C4    0.887   -0.070   -0.813   Cg   426      WNB   0.286000
  8930   H4    0.357   -0.205   -1.758   H1   426      WNB   0.000000
  8931   O4    2.247    0.317   -1.119   Os   426      WNB  -0.471000
  8932   C3    0.889   -1.415   -0.051   Cg   426      WNB   0.234000
  8933   H3    1.364   -2.185   -0.664   H1   426      WNB   0.000000
  8934   C2   -0.560   -1.839    0.273   Cg   426      WNB   0.301000
  8935   H2   -1.079   -2.028   -0.670   H1   426      WNB   0.000000
  8936   O2   -0.536   -3.086    1.029   Oh   426      WNB  -0.703000
  8937  H2O   -1.448   -3.351    1.206   Ho   426      WNB   0.424000
  8938   O3    1.647   -1.278    1.187   Os   426      WNB  -0.420000
  8939   C1   -0.849   -0.263    1.596   Cg   427      WOA   0.305000
  8940   H1   -1.770   -0.604    2.069   H2   427      WOA   0.000000
  8941   C2   -0.196   -1.456    0.825   Cg   427      WOA   0.413000
  8942   H2   -0.960   -1.949    0.221   H1   427      WOA   0.000000
  8943   O2    0.318   -2.430    1.789   Oh   427      WOA  -0.771000
  8944  H2O    0.635   -1.911    2.539   Ho   427      WOA   0.431000
  8945   C3    0.945   -0.961   -0.096   Cg   427      WOA   0.251000
  8946   H3    1.718   -0.511    0.530   H1   427      WOA   0.000000
  8947   C4    0.419    0.128   -1.067   Cg   427      WOA   0.267000
  8948   H4    1.227    0.450   -1.725   H1   427      WOA   0.000000
  8949   C5   -0.101    1.334   -0.262   Cg   427      WOA   0.054000
  8950   H5    0.722    1.746    0.326   H1   427      WOA   0.000000
  8951   C6   -0.527    2.418   -1.309    C   427      WOA   0.896000
  8952  O6A    0.262    3.377   -1.474   O2   427      WOA  -0.822000
  8953  O6B   -1.570    2.200   -1.972   O2   427      WOA  -0.822000
  8954   O5   -1.169    0.861    0.703   Os   427      WOA  -0.424000
  8955   O4   -0.683   -0.365   -1.879   Os   427      WOA  -0.469000
  8956   O3    1.578   -2.065   -0.812   Os   427      WOA  -0.503000
  8957   C1   -1.411   -0.443    1.043   Cg   428      WOB   0.301000
  8958   H1   -1.001   -0.345    2.050   H2   428      WOB   0.000000
  8959   O5   -1.324    0.855    0.375   Os   428      WOB  -0.414000
  8960   C5    0.059    1.337    0.026   Cg   428      WOB   0.049000
  8961   H5    0.611    1.401    0.967   H1   428      WOB   0.000000
  8962   C6    0.216    2.763   -0.621    C   428      WOB   0.838000
  8963  O6B    1.378    3.092   -0.967   O2   428      WOB  -0.794000
  8964  O6A   -0.784    3.520   -0.661   O2   428      WOB  -0.794000
  8965   C4    0.762    0.278   -0.840   Cg   428      WOB   0.260000
  8966   H4    1.794    0.578   -1.029   H1   428      WOB   0.000000
  8967   O4    0.078    0.156   -2.112   Os   428      WOB  -0.453000
  8968   C3    0.774   -1.096   -0.128   Cg   428      WOB   0.259000
  8969   H3    1.359   -0.997    0.789   H1   428      WOB   0.000000
  8970   C2   -0.658   -1.558    0.256   Cg   428      WOB   0.383000
  8971   H2   -1.215   -1.808   -0.648   H1   428      WOB   0.000000
  8972   O2   -0.597   -2.738    1.113   Oh   428      WOB  -0.732000
  8973  H2O   -1.502   -2.932    1.375   Ho   428      WOB   0.401000
  8974   O3    1.463   -2.064   -0.987   Os   428      WOB  -0.498000
  8975   C2   -0.811    0.858    0.594   Cg   429      WPA   0.417000
  8976   C1   -2.264    0.847    1.107   Cg   429      WPA   0.327000
  8977  H12   -2.285    0.880    2.198   H1   429      WPA   0.000000
  8978  H11   -2.807    1.716    0.731   H1   429      WPA   0.000000
  8979   O1   -2.937   -0.342    0.666   Oh   429      WPA  -0.644000
  8980  H1O   -2.478   -1.114    1.007   Ho   429      WPA   0.393000
  8981   C3    0.068   -0.332    1.083   Cg   429      WPA   0.150000
  8982   H3   -0.477   -1.250    0.858   H1   429      WPA   0.000000
  8983   C4    1.439   -0.468    0.388   Cg   429      WPA   0.394000
  8984   H4    1.924   -1.395    0.696   H1   429      WPA   0.000000
  8985   C5    1.216   -0.471   -1.137   Cg   429      WPA   0.153000
  8986   H5    0.661   -1.371   -1.403   H1   429      WPA   0.000000
  8987   C6    0.426    0.749   -1.635   Cg   429      WPA   0.393000
  8988  H6E    0.216    0.656   -2.700   H1   429      WPA   0.000000
  8989  H6A    0.992    1.668   -1.477   H1   429      WPA   0.000000
  8990   O6   -0.855    0.831   -0.894   Os   429      WPA  -0.598000
  8991   O5    2.480   -0.516   -1.820   Oh   429      WPA  -0.693000
  8992  H5O    2.971   -1.289   -1.533   Ho   429      WPA   0.428000
  8993   O4    2.283    0.646    0.755   Os   429      WPA  -0.464000
  8994   O3    0.238   -0.301    2.514   Os   429      WPA  -0.450000
  8995   C2   -1.411   -0.220    0.356   Cg   430      WPB   0.407000
  8996   C1   -1.014   -0.041    1.867   Cg   430      WPB   0.379000
  8997  H12   -1.242   -0.952    2.423   H1   430      WPB   0.000000
  8998  H11    0.054    0.141    1.959   H1   430      WPB   0.000000
  8999   O1   -1.704    1.069    2.500   Oh   430      WPB  -0.720000
  9000  H1O   -1.415    1.145    3.414   Ho   430      WPB   0.410000
  9001   O6   -1.242    1.034   -0.410   Os   430      WPB  -0.540000
  9002   C6    0.144    1.450   -0.732   Cg   430      WPB   0.364000
  9003  H6E    0.112    2.375   -1.308   H1   430      WPB   0.000000
  9004  H6A    0.692    1.644    0.191   H1   430      WPB   0.000000
  9005   C5    0.824    0.339   -1.553   Cg   430      WPB   0.188000
  9006   H5    0.287    0.238   -2.497   H1   430      WPB   0.000000
  9007   O5    2.199    0.696   -1.861   Oh   430      WPB  -0.705000
  9008  H5O    2.758    0.430   -1.118   Ho   430      WPB   0.433000
  9009   C4    0.769   -1.016   -0.810   Cg   430      WPB   0.328000
  9010   H4    1.156   -1.798   -1.464   H1   430      WPB   0.000000
  9011   O4    1.611   -0.957    0.372   Os   430      WPB  -0.465000
  9012   C3   -0.677   -1.379   -0.391   Cg   430      WPB   0.180000
  9013   H3   -1.220   -1.578   -1.317   H1   430      WPB   0.000000
  9014   O3   -0.681   -2.621    0.380   Os   430      WPB  -0.453000
  9015   C1   -0.639    1.337   -1.089   Cg   431      WQA   0.465000
  9016   H1   -0.403    2.184   -1.734   H1   431      WQA   0.000000
  9017   C2   -0.252    0.010   -1.802   Cg   431      WQA   0.281000
  9018   H2    0.789    0.094   -2.118   H1   431      WQA   0.000000
  9019   O2   -1.068   -0.167   -3.005   Oh   431      WQA  -0.695000
  9020  H2O   -2.000   -0.173   -2.761   Ho   431      WQA   0.422000
  9021   C3   -0.372   -1.192   -0.830   Cg   431      WQA   0.312000
  9022   H3   -1.427   -1.372   -0.609   H1   431      WQA   0.000000
  9023   C4    0.399   -0.951    0.493   Cg   431      WQA   0.208000
  9024   H4    1.471   -0.938    0.284   H1   431      WQA   0.000000
  9025   C5   -0.003    0.384    1.159   Cg   431      WQA   0.234000
  9026   H5   -1.039    0.314    1.499   H1   431      WQA   0.000000
  9027   C6    0.869    0.773    2.356   Cg   431      WQA   0.060000
  9028  H63    1.919    0.867    2.075   Hc   431      WQA   0.000000
  9029  H62    0.807    0.032    3.153   Hc   431      WQA   0.000000
  9030  H61    0.556    1.728    2.780   Hc   431      WQA   0.000000
  9031   O5    0.090    1.495    0.175   Os   431      WQA  -0.559000
  9032   O4    0.118   -2.042    1.415   Os   431      WQA  -0.455000
  9033   O3    0.185   -2.384   -1.441   Os   431      WQA  -0.467000
  9034   C1   -1.311   -0.528    1.146   Cg   432      WQB   0.391000
  9035   H1   -0.843   -0.352    2.115   H1   432      WQB   0.000000
  9036   O5   -1.284    0.703    0.359   Os   432      WQB  -0.535000
  9037   C5    0.070    1.206    0.009   Cg   432      WQB   0.271000
  9038   H5    0.606    1.421    0.936   H1   432      WQB   0.000000
  9039   C6   -0.119    2.516   -0.758   Cg   432      WQB   0.048000
  9040  H63   -0.658    2.362   -1.694   Hc   432      WQB   0.000000
  9041  H62    0.839    2.978   -1.002   Hc   432      WQB   0.000000
  9042  H61   -0.684    3.241   -0.170   Hc   432      WQB   0.000000
  9043   C4    0.833    0.116   -0.781   Cg   432      WQB   0.250000
  9044   H4    0.368   -0.010   -1.761   H1   432      WQB   0.000000
  9045   O4    2.206    0.546   -0.968   Os   432      WQB  -0.486000
  9046   C3    0.822   -1.239   -0.031   Cg   432      WQB   0.300000
  9047   H3    1.437   -1.152    0.868   H1   432      WQB   0.000000
  9048   C2   -0.602   -1.679    0.379   Cg   432      WQB   0.323000
  9049   H2   -1.178   -1.925   -0.515   H1   432      WQB   0.000000
  9050   O2   -0.511   -2.869    1.221   Oh   432      WQB  -0.713000
  9051  H2O   -1.400   -3.080    1.536   Ho   432      WQB   0.420000
  9052   O3    1.406   -2.255   -0.891   Os   432      WQB  -0.463000
  9053   C1   -1.313    0.908    0.551   Cg   433      WRA   0.488000
  9054   H1   -2.347    0.859    0.890   H2   433      WRA   0.000000
  9055   C2   -0.552   -0.330    1.081   Cg   433      WRA   0.253000
  9056   H2   -1.156   -1.200    0.821   H1   433      WRA   0.000000
  9057   O2   -0.473   -0.301    2.517   Oh   433      WRA  -0.711000
  9058  H2O    0.055    0.452    2.792   Ho   433      WRA   0.419000
  9059   C3    0.843   -0.555    0.464   Cg   433      WRA   0.345000
  9060   H3    1.251   -1.510    0.798   H1   433      WRA   0.000000
  9061   C4    0.701   -0.548   -1.072   Cg   433      WRA   0.122000
  9062   H4    0.115   -1.419   -1.367   H1   433      WRA   0.000000
  9063   C5    0.003    0.710   -1.613   Cg   433      WRA   0.377000
  9064  H5E   -0.163    0.620   -2.686   H1   433      WRA   0.000000
  9065  H5A    0.613    1.597   -1.435   H1   433      WRA   0.000000
  9066   O5   -1.305    0.873   -0.932   Os   433      WRA  -0.561000
  9067   O4    1.995   -0.661   -1.687   Os   433      WRA  -0.438000
  9068   O3    1.734    0.504    0.877   Os   433      WRA  -0.488000
  9069   C1   -1.439   -0.048    0.791   Cg   434      WRB   0.481000
  9070   H1   -1.110    0.027    1.827   H2   434      WRB   0.000000
  9071   O5   -1.327    1.263    0.135   Os   434      WRB  -0.576000
  9072   C5    0.062    1.752   -0.078   Cg   434      WRB   0.335000
  9073  H5E    0.026    2.681   -0.647   H1   434      WRB   0.000000
  9074  H5A    0.520    1.966    0.889   H1   434      WRB   0.000000
  9075   C4    0.883    0.689   -0.850   Cg   434      WRB   0.236000
  9076   H4    0.447    0.571   -1.843   H1   434      WRB   0.000000
  9077   O4    2.257    1.133   -1.021   Os   434      WRB  -0.478000
  9078   C3    0.846   -0.675   -0.120   Cg   434      WRB   0.203000
  9079   H3    1.412   -1.413   -0.690   H1   434      WRB   0.000000
  9080   C2   -0.630   -1.130    0.004   Cg   434      WRB   0.385000
  9081   H2   -1.048   -1.201   -1.002   H1   434      WRB   0.000000
  9082   O2   -0.721   -2.460    0.596   Oh   434      WRB  -0.732000
  9083  H2O   -1.642   -2.637    0.815   Ho   434      WRB   0.414000
  9084   O3    1.464   -0.518    1.194   Os   434      WRB  -0.462000
  9085   C1   -0.871    0.879    1.434   Cg   435      WTA   0.456000
  9086   H1   -1.834    0.891    1.947   H2   435      WTA   0.000000
  9087   C2   -0.009   -0.269    1.997   Cg   435      WTA   0.245000
  9088   H2    0.344   -0.018    2.998   H1   435      WTA   0.000000
  9089   O2   -0.875   -1.415    2.103   Oh   435      WTA  -0.655000
  9090  H2O   -1.618   -1.203    2.673   Ho   435      WTA   0.436000
  9091   C3    1.196   -0.589    1.085   Cg   435      WTA   0.124000
  9092   H3    1.880    0.257    1.160   H1   435      WTA   0.000000
  9093   C4    0.854   -0.751   -0.411   Cg   435      WTA   0.434000
  9094   H4    1.774   -0.845   -0.990   H1   435      WTA   0.000000
  9095   C5    0.059    0.479   -0.901   Cg   435      WTA   0.157000
  9096   H5    0.714    1.348   -0.812   H1   435      WTA   0.000000
  9097   C6   -0.420    0.401   -2.357   Cg   435      WTA   0.304000
  9098  H62    0.417    0.175   -3.018   H1   435      WTA   0.000000
  9099  H61   -1.176   -0.377   -2.477   H1   435      WTA   0.000000
  9100   O6   -0.978    1.668   -2.730   Oh   435      WTA  -0.669000
  9101  H6O   -0.310    2.351   -2.638   Ho   435      WTA   0.401000
  9102   O5   -1.119    0.693   -0.018   Os   435      WTA  -0.480000
  9103   O4    0.059   -1.938   -0.616   Os   435      WTA  -0.508000
  9104   O3    1.913   -1.738    1.570   Os   435      WTA  -0.439000
  9105   C1   -1.414    0.146    1.202   Cg   436      WTB   0.306000
  9106   H1   -1.169    1.096    1.680   H2   436      WTB   0.000000
  9107   O5   -1.243    0.306   -0.260   Os   436      WTB  -0.354000
  9108   C5    0.117    0.728   -0.688   Cg   436      WTB   0.031000
  9109   H5    0.356    1.667   -0.183   H1   436      WTB   0.000000
  9110   C6    0.100    1.004   -2.198   Cg   436      WTB   0.349000
  9111  H62   -0.250    0.129   -2.749   H1   436      WTB   0.000000
  9112  H61    1.101    1.256   -2.547   H1   436      WTB   0.000000
  9113   O6   -0.777    2.109   -2.457   Oh   436      WTB  -0.666000
  9114  H6O   -1.660    1.895   -2.146   Ho   436      WTB   0.406000
  9115   C4    1.153   -0.323   -0.223   Cg   436      WTB   0.314000
  9116   H4    2.160    0.050   -0.413   H1   436      WTB   0.000000
  9117   O4    0.963   -1.534   -0.984   Os   436      WTB  -0.407000
  9118   C3    0.982   -0.610    1.287   Cg   436      WTB   0.174000
  9119   H3    1.267    0.302    1.815   H1   436      WTB   0.000000
  9120   C2   -0.460   -0.948    1.727   Cg   436      WTB   0.340000
  9121   H2   -0.515   -1.000    2.815   H1   436      WTB   0.000000
  9122   O2   -0.852   -2.224    1.176   Oh   436      WTB  -0.637000
  9123  H2O   -1.757   -2.416    1.430   Ho   436      WTB   0.397000
  9124   O3    1.898   -1.634    1.717   Os   436      WTB  -0.447000
  9125   C1   -1.757    0.293    0.302   Cg   437      WUA   0.363000
  9126   H1   -1.732    1.184   -0.327   H2   437      WUA   0.000000
  9127   C2   -1.287   -0.960   -0.497   Cg   437      WUA   0.259000
  9128   H2   -1.564   -1.856    0.063   H1   437      WUA   0.000000
  9129   O2   -1.959   -0.999   -1.803   Oh   437      WUA  -0.685000
  9130  H2O   -1.647   -0.280   -2.357   Ho   437      WUA   0.385000
  9131   C3    0.257   -0.943   -0.683   Cg   437      WUA   0.417000
  9132   H3    0.514   -0.183   -1.423   H1   437      WUA   0.000000
  9133   C4    1.033   -0.642    0.626   Cg   437      WUA   0.223000
  9134   H4    0.844   -1.450    1.335   H1   437      WUA   0.000000
  9135   C5    0.539    0.677    1.250   Cg   437      WUA   0.232000
  9136   H5    1.008    0.773    2.230   H1   437      WUA   0.000000
  9137   C6    1.039    1.935    0.414    C   437      WUA   0.697000
  9138  O6A    0.182    2.742   -0.013   O2   437      WUA  -0.757000
  9139  O6B    2.269    2.015    0.182   O2   437      WUA  -0.757000
  9140   O5   -0.936    0.516    1.493   Os   437      WUA  -0.515000
  9141   O4    2.473   -0.593    0.380   Os   437      WUA  -0.508000
  9142   O3    0.722   -2.231   -1.172   Os   437      WUA  -0.548000
  9143   C1    0.136    0.492    1.736   Cg   438      WUB   0.278000
  9144   H1    0.677    0.789    2.634   H2   438      WUB   0.000000
  9145   O5    0.173    1.610    0.771   Os   438      WUB  -0.430000
  9146   C5   -0.381    1.366   -0.615   Cg   438      WUB   0.194000
  9147   H5   -0.095    2.227   -1.220   H1   438      WUB   0.000000
  9148   C6   -1.953    1.270   -0.752    C   438      WUB   0.750000
  9149  O6B   -2.423    0.967   -1.876   O2   438      WUB  -0.783000
  9150  O6A   -2.637    1.471    0.277   O2   438      WUB  -0.783000
  9151   C4    0.320    0.127   -1.217   Cg   438      WUB   0.308000
  9152   H4    1.374    0.378   -1.353   H1   438      WUB   0.000000
  9153   O4   -0.214   -0.209   -2.529   Os   438      WUB  -0.517000
  9154   C3    0.241   -1.103   -0.274   Cg   438      WUB   0.286000
  9155   H3   -0.797   -1.418   -0.160   H1   438      WUB   0.000000
  9156   C2    0.844   -0.741    1.102   Cg   438      WUB   0.289000
  9157   H2    1.888   -0.467    0.946   H1   438      WUB   0.000000
  9158   O2    0.842   -1.900    1.982   Oh   438      WUB  -0.680000
  9159  H2O    0.999   -2.659    1.408   Ho   438      WUB   0.422000
  9160   O3    1.005   -2.200   -0.860   Os   438      WUB  -0.528000
  9161   C1   -0.478    1.281    0.014   Cg   439      WVA   0.389000
  9162   H1   -0.292    2.083   -0.701   H2   439      WVA   0.000000
  9163   C2   -0.097   -0.082   -0.653   Cg   439      WVA   0.399000
  9164   H2    0.914    0.020   -1.053   H1   439      WVA   0.000000
  9165   N2   -1.002   -0.414   -1.780   Ng   439      WVA  -0.595000
  9166  H2N   -1.874   -0.866   -1.556    H   439      WVA   0.238000
  9167  C2N   -0.840    0.092   -3.006    C   439      WVA   0.625000
  9168  CME   -1.921   -0.269   -4.043   Cg   439      WVA   0.032000
  9169  H3M   -2.913   -0.067   -3.635   Hc   439      WVA   0.000000
  9170  H2M   -1.788    0.325   -4.948   Hc   439      WVA   0.000000
  9171  H1M   -1.846   -1.327   -4.299   Hc   439      WVA   0.000000
  9172  O2N    0.121    0.799   -3.294    O   439      WVA  -0.605000
  9173   C3   -0.082   -1.224    0.395   Cg   439      WVA   0.176000
  9174   H3   -1.097   -1.364    0.769   H1   439      WVA   0.000000
  9175   C4    0.827   -0.882    1.599   Cg   439      WVA   0.326000
  9176   H4    0.751   -1.676    2.343   H1   439      WVA   0.000000
  9177   C5    0.411    0.460    2.248   Cg   439      WVA   0.112000
  9178   H5   -0.593    0.318    2.652   H1   439      WVA   0.000000
  9179   C6    1.293    0.906    3.433   Cg   439      WVA   0.362000
  9180  H62    0.896    1.820    3.874   H1   439      WVA   0.000000
  9181  H61    1.292    0.132    4.200   H1   439      WVA   0.000000
  9182   O6    2.644    1.139    3.010   Oh   439      WVA  -0.711000
  9183  H6O    2.801    0.561    2.244   Ho   439      WVA   0.424000
  9184   O5    0.320    1.545    1.220   Os   439      WVA  -0.466000
  9185   O4    2.203   -0.814    1.145   Os   439      WVA  -0.453000
  9186   O3    0.349   -2.497   -0.180   Os   439      WVA  -0.447000
  9187   C1   -1.130    0.503    0.790   Cg   440      WVB   0.305000
  9188   H1   -0.683    0.617    1.779   H2   440      WVB   0.000000
  9189   O5   -1.026    1.791    0.085   Os   440      WVB  -0.408000
  9190   C5    0.357    2.251   -0.246   Cg   440      WVB   0.136000
  9191   H5    0.890    2.419    0.693   H1   440      WVB   0.000000
  9192   C6    0.296    3.587   -1.007   Cg   440      WVB   0.353000
  9193  H62   -0.316    3.496   -1.904   H1   440      WVB   0.000000
  9194  H61    1.298    3.902   -1.301   H1   440      WVB   0.000000
  9195   O6   -0.272    4.587   -0.146   Oh   440      WVB  -0.714000
  9196  H6O   -1.148    4.286    0.113   Ho   440      WVB   0.427000
  9197   C4    1.116    1.152   -1.022   Cg   440      WVB   0.253000
  9198   H4    2.155    1.457   -1.154   H1   440      WVB   0.000000
  9199   O4    0.520    0.980   -2.327   Os   440      WVB  -0.444000
  9200   C3    1.073   -0.196   -0.270   Cg   440      WVB   0.152000
  9201   H3    1.578   -0.065    0.689   H1   440      WVB   0.000000
  9202   C2   -0.393   -0.642    0.011   Cg   440      WVB   0.544000
  9203   H2   -0.905   -0.784   -0.942   H1   440      WVB   0.000000
  9204   N2   -0.414   -1.907    0.781   Ng   440      WVB  -0.686000
  9205  H2N   -0.187   -1.870    1.759    H   440      WVB   0.254000
  9206  C2N   -0.753   -3.079    0.236    C   440      WVB   0.586000
  9207  O2N   -1.069   -3.188   -0.945    O   440      WVB  -0.564000
  9208  CME   -0.715   -4.305    1.172   Cg   440      WVB   0.056000
  9209  H3M   -1.026   -4.028    2.181   Hc   440      WVB   0.000000
  9210  H2M   -1.387   -5.079    0.800   Hc   440      WVB   0.000000
  9211  H1M    0.301   -4.703    1.207   Hc   440      WVB   0.000000
  9212   O3    1.839   -1.181   -1.032   Os   440      WVB  -0.444000
  9213   C1   -1.568    1.084   -0.273   Cg   441      WWA   0.462100
  9214   H1   -1.425    1.919   -0.960   H2   441      WWA   0.000000
  9215   C2   -1.137   -0.241   -0.961   Cg   441      WWA   0.275000
  9216   H2   -1.846   -0.454   -1.764   H1   441      WWA   0.000000
  9217   N2    0.202   -0.111   -1.584   Ng   441      WWA  -0.475100
  9218  H2N    0.962   -0.619   -1.163    H   441      WWA   0.214200
  9219  C2N    0.435    0.569   -2.710    C   441      WWA   0.590900
  9220  CME    1.885    0.534   -3.222   Cg   441      WWA  -0.034000
  9221  H3M    2.553    0.960   -2.471   Hc   441      WWA   0.000000
  9222  H2M    1.975    1.114   -4.142   Hc   441      WWA   0.000000
  9223  H1M    2.183   -0.496   -3.424   Hc   441      WWA   0.000000
  9224  O2N   -0.447    1.197   -3.291    O   441      WWA  -0.575700
  9225   C3   -1.186   -1.405    0.060   Cg   441      WWA   0.252000
  9226   H3   -2.226   -1.564    0.348   H1   441      WWA   0.000000
  9227   C4   -0.362   -1.105    1.338   Cg   441      WWA   0.321300
  9228   H4    0.696   -1.107    1.072   H1   441      WWA   0.000000
  9229   C5   -0.725    0.257    1.975   Cg   441      WWA   0.242100
  9230   H5   -1.726    0.171    2.403   H1   441      WWA   0.000000
  9231   C6    0.223    0.675    3.121   Cg   441      WWA   0.299500
  9232  H62   -0.021    1.687    3.446   H1   441      WWA   0.000000
  9233  H61    0.090    0.011    3.974   H1   441      WWA   0.000000
  9234   O6    1.608    0.635    2.719   Oh   441      WWA  -0.661800
  9235  H6O    1.943   -0.263    2.793   Ho   441      WWA   0.395900
  9236   O5   -0.788    1.339    0.945   Os   441      WWA  -0.541500
  9237   O4   -0.592   -2.155    2.322   Os   441      WWA  -0.482100
  9238   O3   -0.704   -2.634   -0.551   Os   441      WWA  -0.476800
  9239   C1   -0.832   -0.023    1.747   Cg   442      WWB   0.387000
  9240   H1   -0.350    0.067    2.721   H2   442      WWB   0.000000
  9241   O5   -0.779    1.272    1.066   Os   442      WWB  -0.498000
  9242   C5    0.605    1.788    0.820   Cg   442      WWB   0.321000
  9243   H5    1.087    1.939    1.788   H1   442      WWB   0.000000
  9244   C6    0.509    3.149    0.102   Cg   442      WWB   0.247000
  9245  H62    0.031    3.027   -0.871   H1   442      WWB   0.000000
  9246  H61    1.503    3.568   -0.056   H1   442      WWB   0.000000
  9247   O6   -0.266    4.077    0.888   Oh   442      WWB  -0.663000
  9248  H6O   -1.132    3.694    1.059   Ho   442      WWB   0.413000
  9249   C4    1.419    0.747    0.012   Cg   442      WWB   0.277000
  9250   H4    1.035    0.701   -1.010   H1   442      WWB   0.000000
  9251   O4    2.804    1.164   -0.032   Os   442      WWB  -0.498000
  9252   C3    1.341   -0.665    0.650   Cg   442      WWB   0.217000
  9253   H3    1.846   -0.641    1.617   H1   442      WWB   0.000000
  9254   C2   -0.123   -1.113    0.891   Cg   442      WWB   0.294000
  9255   H2   -0.101   -2.035    1.476   H1   442      WWB   0.000000
  9256   N2   -0.833   -1.388   -0.384   Ng   442      WWB  -0.558000
  9257  H2N   -1.346   -0.629   -0.802    H   442      WWB   0.265000
  9258  C2N   -0.855   -2.588   -0.973    C   442      WWB   0.585000
  9259  O2N   -0.209   -3.532   -0.526    O   442      WWB  -0.600000
  9260  CME   -1.699   -2.714   -2.261   Cg   442      WWB   0.056000
  9261  H3M   -2.379   -1.868   -2.372   Hc   442      WWB   0.000000
  9262  H2M   -2.287   -3.632   -2.229   Hc   442      WWB   0.000000
  9263  H1M   -1.033   -2.747   -3.123   Hc   442      WWB   0.000000
  9264   O3    2.048   -1.619   -0.196   Os   442      WWB  -0.439000
  9265   C1   -0.560    1.400   -0.694   Cg   443      WXA   0.482000
  9266   H1   -0.409    2.182   -1.437   H2   443      WXA   0.000000
  9267   C2   -0.113    0.032   -1.274   Cg   443      WXA   0.197000
  9268   H2    0.900    0.151   -1.661   H1   443      WXA   0.000000
  9269   O2   -0.972   -0.372   -2.388   Oh   443      WXA  -0.656000
  9270  H2O   -1.888   -0.136   -2.186   Ho   443      WXA   0.409000
  9271   C3   -0.093   -1.058   -0.182   Cg   443      WXA   0.359000
  9272   H3   -1.117   -1.285    0.123   H1   443      WXA   0.000000
  9273   C4    0.737   -0.634    1.053   Cg   443      WXA   0.247000
  9274   H4    1.788   -0.546    0.775   H1   443      WXA   0.000000
  9275   C5    0.248    0.721    1.595   Cg   443      WXA   0.335000
  9276  H5E    0.919    1.072    2.379   H1   443      WXA   0.000000
  9277  H5A   -0.747    0.615    2.030   H1   443      WXA   0.000000
  9278   O5    0.195    1.742    0.512   Os   443      WXA  -0.588000
  9279   O4    0.613   -1.627    2.106   Os   443      WXA  -0.494000
  9280   O3    0.499   -2.255   -0.750   Os   443      WXA  -0.485000
  9281   C1   -1.358    0.039    0.954   Cg   444      WXB   0.248000
  9282   H1   -0.892    0.182    1.930   H2   444      WXB   0.000000
  9283   O5   -1.291    1.299    0.207   Os   444      WXB  -0.447000
  9284   C5    0.075    1.751   -0.147   Cg   444      WXB   0.303000
  9285  H5E    0.006    2.676   -0.720   H1   444      WXB   0.000000
  9286  H5A    0.631    1.959    0.770   H1   444      WXB   0.000000
  9287   C4    0.787    0.664   -0.975   Cg   444      WXB   0.286000
  9288   H4    0.288    0.568   -1.940   H1   444      WXB   0.000000
  9289   O4    2.155    1.078   -1.195   Os   444      WXB  -0.487000
  9290   C3    0.778   -0.701   -0.248   Cg   444      WXB   0.228000
  9291   H3    1.403   -0.632    0.645   H1   444      WXB   0.000000
  9292   C2   -0.654   -1.108    0.171   Cg   444      WXB   0.425000
  9293   H2   -1.240   -1.351   -0.718   H1   444      WXB   0.000000
  9294   O2   -0.576   -2.284    1.019   Oh   444      WXB  -0.699000
  9295  H2O   -1.459   -2.429    1.380   Ho   444      WXB   0.398000
  9296   O3    1.346   -1.712   -1.132   Os   444      WXB  -0.449000
  9297   C1   -0.663    1.479   -0.064   Cg   445      WYA   0.468000
  9298   H1   -0.493    2.321   -0.735   H2   445      WYA   0.000000
  9299   C2   -0.121    0.183   -0.738   Cg   445      WYA   0.245000
  9300   H2    0.899    0.397   -1.063   H1   445      WYA   0.000000
  9301   N2   -0.912   -0.166   -1.947   Ng   445      WYA  -0.552000
  9302  H2N   -1.886    0.097   -1.929    H   445      WYA   0.236000
  9303  C2N   -0.438   -0.847   -2.997    C   445      WYA   0.588000
  9304  CME   -1.383   -1.025   -4.204   Cg   445      WYA   0.063000
  9305  H3M   -2.337   -0.519   -4.041   Hc   445      WYA   0.000000
  9306  H2M   -0.914   -0.609   -5.097   Hc   445      WYA   0.000000
  9307  H1M   -1.571   -2.087   -4.364   Hc   445      WYA   0.000000
  9308  O2N    0.696   -1.319   -2.994    O   445      WYA  -0.579000
  9309   C3   -0.058   -1.004    0.253   Cg   445      WYA   0.165000
  9310   H3   -1.077   -1.320    0.487   H1   445      WYA   0.000000
  9311   C4    0.674   -0.632    1.563   Cg   445      WYA   0.322000
  9312   H4    1.737   -0.506    1.352   H1   445      WYA   0.000000
  9313   C5    0.114    0.653    2.210   Cg   445      WYA   0.246000
  9314   H5   -0.897    0.440    2.566   H1   445      WYA   0.000000
  9315   C6    0.940    1.120    3.427   Cg   445      WYA   0.328000
  9316  H62    0.910    0.365    4.213   H1   445      WYA   0.000000
  9317  H61    0.511    2.037    3.831   H1   445      WYA   0.000000
  9318   O6    2.318    1.369    3.074   Oh   445      WYA  -0.688000
  9319  H6O    2.800    1.663    3.850   Ho   445      WYA   0.421000
  9320   O5    0.001    1.763    1.208   Os   445      WYA  -0.568000
  9321   O4    0.506   -1.729    2.494   Os   445      WYA  -0.478000
  9322   O3    0.646   -2.125   -0.356   Os   445      WYA  -0.411000
  9323   C1   -1.111    0.448    0.755   Cg   446      WYB   0.287000
  9324   H1   -0.674    0.584    1.746   H2   446      WYB   0.000000
  9325   O5   -1.056    1.729    0.041   Os   446      WYB  -0.433000
  9326   C5    0.317    2.251   -0.225   Cg   446      WYB   0.208000
  9327   H5    0.816    2.407    0.734   H1   446      WYB   0.000000
  9328   C6    0.221    3.603   -0.955   Cg   446      WYB   0.289000
  9329  H62   -0.273    3.478   -1.920   H1   446      WYB   0.000000
  9330  H61    1.215    4.015   -1.129   H1   446      WYB   0.000000
  9331   O6   -0.533    4.533   -0.158   Oh   446      WYB  -0.689000
  9332  H6O   -1.384    4.136    0.047   Ho   446      WYB   0.424000
  9333   C4    1.098    1.196   -1.034   Cg   446      WYB   0.302000
  9334   H4    0.648    1.087   -2.023   H1   446      WYB   0.000000
  9335   O4    2.460    1.649   -1.189   Os   446      WYB  -0.474000
  9336   C3    1.115   -0.177   -0.320   Cg   446      WYB   0.180000
  9337   H3    1.650   -0.075    0.627   H1   446      WYB   0.000000
  9338   C2   -0.331   -0.665   -0.024   Cg   446      WYB   0.480000
  9339   H2   -0.838   -0.816   -0.979   H1   446      WYB   0.000000
  9340   N2   -0.315   -1.939    0.737   Ng   446      WYB  -0.722000
  9341  H2N   -0.130   -1.889    1.725    H   446      WYB   0.300000
  9342  C2N   -0.726   -3.102    0.224    C   446      WYB   0.648000
  9343  O2N   -1.038   -3.220   -0.956    O   446      WYB  -0.576000
  9344  CME   -0.745   -4.308    1.185   Cg   446      WYB   0.034000
  9345  H3M   -1.064   -4.000    2.183   Hc   446      WYB   0.000000
  9346  H2M   -1.434   -5.069    0.817   Hc   446      WYB   0.000000
  9347  H1M    0.257   -4.737    1.245   Hc   446      WYB   0.000000
  9348   O3    1.857   -1.121   -1.154   Os   446      WYB  -0.452000
  9349   C1   -0.913   -0.247    1.561   Cg   447      WZA   0.398000
  9350   H1   -1.816   -0.577    2.075   H2   447      WZA   0.000000
  9351   C2   -0.236   -1.458    0.868   Cg   447      WZA   0.326000
  9352   H2   -0.997   -1.961    0.270   H1   447      WZA   0.000000
  9353   O2    0.246   -2.410    1.874   Oh   447      WZA  -0.732000
  9354  H2O    0.631   -1.893    2.593   Ho   447      WZA   0.406000
  9355   C3    0.918   -1.031   -0.070   Cg   447      WZA   0.300000
  9356   H3    1.759   -0.694    0.541   H1   447      WZA   0.000000
  9357   C4    0.515    0.109   -1.047   Cg   447      WZA   0.193000
  9358   H4   -0.152   -0.292   -1.812   H1   447      WZA   0.000000
  9359   C5   -0.199    1.292   -0.345   Cg   447      WZA   0.187000
  9360   H5    0.543    1.767    0.301   H1   447      WZA   0.000000
  9361   C6   -0.599    2.439   -1.381    C   447      WZA   0.798000
  9362  O6A    0.208    2.690   -2.314   O2   447      WZA  -0.787000
  9363  O6B   -1.663    3.070   -1.189   O2   447      WZA  -0.787000
  9364   O5   -1.278    0.773    0.584   Os   447      WZA  -0.544000
  9365   O4    1.701    0.640   -1.694   Os   447      WZA  -0.454000
  9366   O3    1.330   -2.216   -0.814   Os   447      WZA  -0.498000
  9367   C1   -1.450   -0.390    1.011   Cg   448      WZB   0.251000
  9368   H1   -1.037   -0.254    2.011   H2   448      WZB   0.000000
  9369   O5   -1.325    0.863    0.272   Os   448      WZB  -0.413000
  9370   C5    0.073    1.338   -0.001   Cg   448      WZB   0.075000
  9371   H5    0.563    1.456    0.968   H1   448      WZB   0.000000
  9372   C6    0.223    2.742   -0.720    C   448      WZB   0.893000
  9373  O6B    1.352    3.030   -1.195   O2   448      WZB  -0.818000
  9374  O6A   -0.774    3.498   -0.757   O2   448      WZB  -0.818000
  9375   C4    0.817    0.234   -0.779   Cg   448      WZB   0.267000
  9376   H4    0.386    0.172   -1.781   H1   448      WZB   0.000000
  9377   O4    2.212    0.604   -0.902   Os   448      WZB  -0.498000
  9378   C3    0.732   -1.159   -0.099   Cg   448      WZB   0.266000
  9379   H3    1.329   -1.140    0.815   H1   448      WZB   0.000000
  9380   C2   -0.725   -1.548    0.266   Cg   448      WZB   0.411000
  9381   H2   -1.273   -1.784   -0.648   H1   448      WZB   0.000000
  9382   O2   -0.752   -2.711    1.144   Oh   448      WZB  -0.740000
  9383  H2O   -1.669   -2.820    1.414   Ho   448      WZB   0.422000
  9384   O3    1.318   -2.130   -1.017   Os   448      WZB  -0.492000
  9385   C1   -1.074    1.020    1.443   Cg   449      XEA   0.480000
  9386   H1   -2.008    1.083    2.002   H2   449      XEA   0.000000
  9387   C2   -0.258   -0.188    1.955   Cg   449      XEA   0.179000
  9388   H2    0.159    0.034    2.939   H1   449      XEA   0.000000
  9389   C3    0.858   -0.666    1.006   Cg   449      XEA   0.328000
  9390   H3    1.232   -1.639    1.327   H1   449      XEA   0.000000
  9391   C4    0.371   -0.749   -0.457   Cg   449      XEA   0.261000
  9392   H4   -0.350   -1.566   -0.530   H1   449      XEA   0.000000
  9393   C5   -0.309    0.545   -0.943   Cg   449      XEA   0.374000
  9394   H5    0.419    1.360   -0.932   H1   449      XEA   0.000000
  9395   C6   -0.921    0.440   -2.347   Cg   449      XEA   0.259000
  9396  H62   -0.166    0.138   -3.072   H1   449      XEA   0.000000
  9397  H61   -1.728   -0.294   -2.362   H1   449      XEA   0.000000
  9398   O6   -1.436    1.724   -2.727   Os   449      XEA  -0.451000
  9399   O5   -1.404    0.868    0.006   Os   449      XEA  -0.587000
  9400   O4    1.483   -1.069   -1.312   Oh   449      XEA  -0.721000
  9401  H4O    2.143   -0.375   -1.250   Ho   449      XEA   0.415000
  9402   O3    1.935    0.286    1.113   Oh   449      XEA  -0.714000
  9403  H3O    2.235    0.328    2.025   Ho   449      XEA   0.420000
  9404   O2   -1.181   -1.278    2.114   Os   449      XEA  -0.437000
  9405   C1   -1.770   -0.680    1.052   Cg   450      XEB   0.488000
  9406   H1   -1.394   -0.577    2.070   H2   450      XEB   0.000000
  9407   O5   -1.635    0.608    0.359   Os   450      XEB  -0.532000
  9408   C5   -0.222    1.064    0.145   Cg   450      XEB   0.257000
  9409   H5    0.236    1.234    1.122   H1   450      XEB   0.000000
  9410   C6   -0.234    2.398   -0.627   Cg   450      XEB   0.278000
  9411  H62   -0.685    2.258   -1.611   H1   450      XEB   0.000000
  9412  H61    0.781    2.771   -0.765   H1   450      XEB   0.000000
  9413   O6   -0.995    3.380    0.099   Os   450      XEB  -0.463000
  9414   C4    0.575   -0.033   -0.604   Cg   450      XEB   0.320000
  9415   H4    0.167   -0.132   -1.611   H1   450      XEB   0.000000
  9416   O4    1.975    0.348   -0.732   Oh   450      XEB  -0.724000
  9417  H4O    2.382   -0.130   -1.464   Ho   450      XEB   0.420000
  9418   C3    0.459   -1.404    0.118   Cg   450      XEB   0.315000
  9419   H3    0.981   -2.163   -0.466   H1   450      XEB   0.000000
  9420   O3    1.077   -1.343    1.433   Oh   450      XEB  -0.681000
  9421  H3O    1.960   -0.966    1.337   Ho   450      XEB   0.403000
  9422   C2   -1.014   -1.817    0.298   Cg   450      XEB   0.184000
  9423   H2   -1.072   -2.739    0.879   H1   450      XEB   0.000000
  9424   O2   -1.571   -2.078   -1.029   Os   450      XEB  -0.459000
  9425   C1   -0.998   -0.370    1.834   Cg   451      XGA   0.509000
  9426   H1   -1.907   -0.730    2.315   H2   451      XGA   0.000000
  9427   C2   -0.282   -1.548    1.112   Cg   451      XGA   0.246000
  9428   H2   -1.019   -2.043    0.479   H1   451      XGA   0.000000
  9429   C3    0.868   -1.044    0.215   Cg   451      XGA   0.286000
  9430   H3    1.677   -0.668    0.845   H1   451      XGA   0.000000
  9431   C4    0.406    0.069   -0.755   Cg   451      XGA   0.254000
  9432   H4   -0.301   -0.348   -1.476   H1   451      XGA   0.000000
  9433   C5   -0.266    1.231    0.005   Cg   451      XGA   0.283000
  9434   H5    0.487    1.707    0.636   H1   451      XGA   0.000000
  9435   C6   -0.854    2.300   -0.944   Cg   451      XGA   0.276000
  9436  H62   -0.141    2.552   -1.729   H1   451      XGA   0.000000
  9437  H61   -1.759    1.918   -1.421   H1   451      XGA   0.000000
  9438   O6   -1.171    3.510   -0.223   Os   451      XGA  -0.458000
  9439   O5   -1.350    0.691    0.891   Os   451      XGA  -0.574000
  9440   O4    1.559    0.578   -1.473   Oh   451      XGA  -0.710000
  9441  H4O    2.030   -0.185   -1.837   Ho   451      XGA   0.436000
  9442   O3    1.368   -2.161   -0.566   Oh   451      XGA  -0.699000
  9443  H3O    1.429   -2.923    0.026   Ho   451      XGA   0.427000
  9444   O2    0.222   -2.537    2.068   Os   451      XGA  -0.470000
  9445   C1   -1.664   -0.641    1.162   Cg   452      XGB   0.384000
  9446   H1   -1.269   -0.529    2.173   H2   452      XGB   0.000000
  9447   O5   -1.603    0.652    0.475   Os   452      XGB  -0.471000
  9448   C5   -0.227    1.189    0.244   Cg   452      XGB   0.225000
  9449   H5    0.256    1.322    1.214   H1   452      XGB   0.000000
  9450   C6   -0.325    2.562   -0.449   Cg   452      XGB   0.282000
  9451  H62   -0.794    2.458   -1.428   H1   452      XGB   0.000000
  9452  H61    0.666    2.994   -0.587   H1   452      XGB   0.000000
  9453   O6   -1.116    3.458    0.355   Os   452      XGB  -0.458000
  9454   C4    0.576    0.166   -0.586   Cg   452      XGB   0.276000
  9455   H4    0.148    0.095   -1.588   H1   452      XGB   0.000000
  9456   O4    1.946    0.623   -0.696   Oh   452      XGB  -0.714000
  9457  H4O    2.456   -0.088   -1.108   Ho   452      XGB   0.440000
  9458   C3    0.561   -1.233    0.079   Cg   452      XGB   0.284000
  9459   H3    1.120   -1.190    1.016   H1   452      XGB   0.000000
  9460   O3    1.217   -2.180   -0.808   Oh   452      XGB  -0.709000
  9461  H3O    1.125   -3.058   -0.412   Ho   452      XGB   0.432000
  9462   C2   -0.875   -1.721    0.372   Cg   452      XGB   0.310000
  9463   H2   -1.389   -1.924   -0.571   H1   452      XGB   0.000000
  9464   O2   -0.808   -2.957    1.143   Os   452      XGB  -0.475000
  9465   C1   -1.041    1.041    1.412   Cg   453      XKA   0.473000
  9466   H1   -1.975    1.066    1.974   H2   453      XKA   0.000000
  9467   C2   -0.181   -0.137    1.919   Cg   453      XKA   0.281000
  9468   H2   -0.831   -1.013    1.920   H1   453      XKA   0.000000
  9469   C3    1.037   -0.489    1.039   Cg   453      XKA   0.354000
  9470   H3    1.488   -1.420    1.385   H1   453      XKA   0.000000
  9471   C4    0.636   -0.613   -0.444   Cg   453      XKA   0.196000
  9472   H4    1.532   -0.700   -1.061   H1   453      XKA   0.000000
  9473   C5   -0.218    0.579   -0.943   Cg   453      XKA   0.301000
  9474   H5    0.418    1.466   -0.923   H1   453      XKA   0.000000
  9475   C6   -0.762    0.430   -2.371   Cg   453      XKA   0.287000
  9476  H62    0.049    0.198   -3.061   H1   453      XKA   0.000000
  9477  H61   -1.502   -0.370   -2.424   H1   453      XKA   0.000000
  9478   O6   -1.370    1.667   -2.768   Os   453      XKA  -0.463000
  9479   O5   -1.360    0.808   -0.016   Os   453      XKA  -0.540000
  9480   O4   -0.118   -1.831   -0.584   Oh   453      XKA  -0.712000
  9481  H4O   -0.365   -1.951   -1.504   Ho   453      XKA   0.420000
  9482   O3    2.031    0.550    1.126   Oh   453      XKA  -0.744000
  9483  H3O    2.314    0.645    2.038   Ho   453      XKA   0.436000
  9484   O2    0.218    0.073    3.286   Os   453      XKA  -0.483000
  9485   C1   -1.587   -0.554    1.163   Cg   454      XKB   0.449000
  9486   H1   -1.193   -0.403    2.169   H2   454      XKB   0.000000
  9487   O5   -1.496    0.699    0.409   Os   454      XKB  -0.514000
  9488   C5   -0.101    1.157    0.107   Cg   454      XKB   0.303000
  9489   H5    0.401    1.352    1.057   H1   454      XKB   0.000000
  9490   C6   -0.155    2.485   -0.675   Cg   454      XKB   0.259000
  9491  H62   -0.722    2.363   -1.598   H1   454      XKB   0.000000
  9492  H61    0.853    2.809   -0.933   H1   454      XKB   0.000000
  9493   O6   -0.779    3.507    0.126   Os   454      XKB  -0.448000
  9494   C4    0.698    0.049   -0.633   Cg   454      XKB   0.217000
  9495   H4    1.740    0.360   -0.714   H1   454      XKB   0.000000
  9496   O4    0.189   -0.147   -1.982   Oh   454      XKB  -0.700000
  9497  H4O    0.831   -0.628   -2.516   Ho   454      XKB   0.425000
  9498   C3    0.621   -1.294    0.128   Cg   454      XKB   0.253000
  9499   H3    1.098   -2.075   -0.467   H1   454      XKB   0.000000
  9500   O3    1.371   -1.153    1.363   Oh   454      XKB  -0.710000
  9501  H3O    1.255   -1.973    1.865   Ho   454      XKB   0.442000
  9502   C2   -0.839   -1.706    0.430   Cg   454      XKB   0.308000
  9503   H2   -1.344   -1.910   -0.515   H1   454      XKB   0.000000
  9504   O2   -0.841   -2.939    1.215   Os   454      XKB  -0.478000
  9505   C1   -1.080    1.116    1.365   Cg   455      XLA   0.465000
  9506   H1   -2.031    1.128    1.897   H2   455      XLA   0.000000
  9507   C2   -0.216   -0.050    1.902   Cg   455      XLA   0.339000
  9508   H2   -0.833   -0.949    1.915   H1   455      XLA   0.000000
  9509   C3    1.029   -0.309    1.031   Cg   455      XLA   0.253000
  9510   H3    1.707    0.542    1.112   H1   455      XLA   0.000000
  9511   C4    0.657   -0.502   -0.455   Cg   455      XLA   0.204000
  9512   H4    1.564   -0.603   -1.052   H1   455      XLA   0.000000
  9513   C5   -0.169    0.699   -0.964   Cg   455      XLA   0.216000
  9514   H5    0.464    1.587   -0.895   H1   455      XLA   0.000000
  9515   C6   -0.654    0.583   -2.415   Cg   455      XLA   0.308000
  9516  H62    0.186    0.369   -3.077   H1   455      XLA   0.000000
  9517  H61   -1.388   -0.217   -2.518   H1   455      XLA   0.000000
  9518   O6   -1.250    1.827   -2.806   Os   455      XLA  -0.460000
  9519   O5   -1.349    0.896   -0.076   Os   455      XLA  -0.527000
  9520   O4   -0.138   -1.699   -0.609   Oh   455      XLA  -0.673000
  9521  H4O   -0.369   -1.813   -1.533   Ho   455      XLA   0.436000
  9522   O3    1.724   -1.480    1.500   Oh   455      XLA  -0.701000
  9523  H3O    1.966   -1.360    2.421   Ho   455      XLA   0.433000
  9524   O2    0.180    0.233    3.257   Os   455      XLA  -0.487000
  9525   C1   -1.560   -0.584    1.243   Cg   456      XLB   0.374000
  9526   H1   -1.166   -0.475    2.255   H2   456      XLB   0.000000
  9527   O5   -1.483    0.717    0.565   Os   456      XLB  -0.402000
  9528   C5   -0.107    1.226    0.277   Cg   456      XLB   0.140000
  9529   H5    0.409    1.362    1.230   H1   456      XLB   0.000000
  9530   C6   -0.193    2.598   -0.415   Cg   456      XLB   0.319000
  9531  H62   -0.785    2.534   -1.330   H1   456      XLB   0.000000
  9532  H61    0.804    2.956   -0.672   H1   456      XLB   0.000000
  9533   O6   -0.809    3.537    0.481   Os   456      XLB  -0.468000
  9534   C4    0.686    0.182   -0.540   Cg   456      XLB   0.203000
  9535   H4    1.718    0.517   -0.650   H1   456      XLB   0.000000
  9536   O4    0.103    0.052   -1.860   Oh   456      XLB  -0.664000
  9537  H4O    0.550   -0.685   -2.298   Ho   456      XLB   0.437000
  9538   C3    0.668   -1.190    0.172   Cg   456      XLB   0.259000
  9539   H3    1.204   -1.088    1.119   H1   456      XLB   0.000000
  9540   O3    1.387   -2.159   -0.641   Oh   456      XLB  -0.694000
  9541  H3O    1.320   -3.016   -0.199   Ho   456      XLB   0.433000
  9542   C2   -0.769   -1.679    0.467   Cg   456      XLB   0.357000
  9543   H2   -1.281   -1.905   -0.471   H1   456      XLB   0.000000
  9544   O2   -0.695   -2.897    1.267   Os   456      XLB  -0.488000
  9545   C1   -1.158   -0.348    1.770   Cg   457      XMA   0.433000
  9546   H1   -2.124   -0.665    2.165   H2   457      XMA   0.000000
  9547   C2   -0.453   -1.555    1.088   Cg   457      XMA   0.245000
  9548   H2   -0.149   -2.274    1.850   H1   457      XMA   0.000000
  9549   C3    0.794   -1.084    0.306   Cg   457      XMA   0.252000
  9550   H3    1.521   -0.689    1.019   H1   457      XMA   0.000000
  9551   C4    0.442    0.030   -0.712   Cg   457      XMA   0.326000
  9552   H4   -0.229   -0.365   -1.475   H1   457      XMA   0.000000
  9553   C5   -0.220    1.230    0.002   Cg   457      XMA   0.276000
  9554   H5    0.519    1.683    0.666   H1   457      XMA   0.000000
  9555   C6   -0.707    2.304   -0.994   Cg   457      XMA   0.266000
  9556  H62    0.067    2.522   -1.731   H1   457      XMA   0.000000
  9557  H61   -1.588    1.947   -1.529   H1   457      XMA   0.000000
  9558   O6   -1.032    3.534   -0.311   Os   457      XMA  -0.460000
  9559   O5   -1.373    0.769    0.839   Os   457      XMA  -0.507000
  9560   O4    1.665    0.481   -1.350   Oh   457      XMA  -0.733000
  9561  H4O    2.112   -0.301   -1.699   Ho   457      XMA   0.438000
  9562   O3    1.411   -2.225   -0.365   Oh   457      XMA  -0.696000
  9563  H3O    1.878   -2.768    0.280   Ho   457      XMA   0.431000
  9564   O2   -1.378   -2.227    0.181   Os   457      XMA  -0.465000
  9565   C1   -1.706   -0.642    1.239   Cg   458      XMB   0.314000
  9566   H1   -1.225   -0.600    2.217   H2   458      XMB   0.000000
  9567   O5   -1.598    0.678    0.602   Os   458      XMB  -0.393000
  9568   C5   -0.209    1.137    0.279   Cg   458      XMB   0.206000
  9569   H5    0.314    1.304    1.223   H1   458      XMB   0.000000
  9570   C6   -0.289    2.472   -0.482   Cg   458      XMB   0.273000
  9571  H62   -0.811    2.337   -1.430   H1   458      XMB   0.000000
  9572  H61    0.711    2.853   -0.692   H1   458      XMB   0.000000
  9573   O6   -0.998    3.443    0.309   Os   458      XMB  -0.455000
  9574   C4    0.554    0.057   -0.529   Cg   458      XMB   0.349000
  9575   H4    0.145   -0.008   -1.538   H1   458      XMB   0.000000
  9576   O4    1.948    0.453   -0.619   Oh   458      XMB  -0.746000
  9577  H4O    2.350   -0.014   -1.359   Ho   458      XMB   0.443000
  9578   C3    0.449   -1.323    0.176   Cg   458      XMB   0.263000
  9579   H3    0.898   -1.242    1.168   H1   458      XMB   0.000000
  9580   O3    1.185   -2.358   -0.537   Oh   458      XMB  -0.692000
  9581  H3O    2.118   -2.309   -0.306   Ho   458      XMB   0.430000
  9582   C2   -1.032   -1.730    0.358   Cg   458      XMB   0.241000
  9583   H2   -1.096   -2.700    0.853   H1   458      XMB   0.000000
  9584   O2   -1.709   -1.809   -0.933   Os   458      XMB  -0.427000
  9585   C1   -1.142    1.064    1.454   Cg   459      XNA   0.478000
  9586   H1   -2.088    1.157    1.987   H2   459      XNA   0.000000
  9587   C2   -0.405   -0.197    1.959   Cg   459      XNA   0.228000
  9588   H2   -1.122   -1.018    1.908   H1   459      XNA   0.000000
  9589   C3    0.816   -0.617    1.119   Cg   459      XNA   0.330000
  9590   H3    1.199   -1.576    1.472   H1   459      XNA   0.000000
  9591   C4    0.382   -0.733   -0.357   Cg   459      XNA   0.167000
  9592   H4   -0.314   -1.569   -0.439   H1   459      XNA   0.000000
  9593   C5   -0.311    0.536   -0.901   Cg   459      XNA   0.404000
  9594   H5    0.407    1.358   -0.910   H1   459      XNA   0.000000
  9595   C6   -0.895    0.365   -2.310   Cg   459      XNA   0.280000
  9596  H62   -0.122    0.047   -3.009   H1   459      XNA   0.000000
  9597  H61   -1.689   -0.383   -2.310   H1   459      XNA   0.000000
  9598   O6   -1.425    1.622   -2.751   Os   459      XNA  -0.461000
  9599   O5   -1.432    0.893    0.013   Os   459      XNA  -0.611000
  9600   O4    1.532   -1.041   -1.166   Oh   459      XNA  -0.733000
  9601  H4O    2.160   -0.316   -1.117   Ho   459      XNA   0.444000
  9602   O3    1.858    0.376    1.246   Oh   459      XNA  -0.714000
  9603  H3O    2.637    0.086    0.766   Ho   459      XNA   0.441000
  9604   O2   -0.045   -0.054    3.345   Os   459      XNA  -0.447000
  9605   C1   -1.665   -0.634    1.056   Cg   460      XNB   0.422000
  9606   H1   -1.263   -0.512    2.064   H2   460      XNB   0.000000
  9607   O5   -1.571    0.645    0.337   Os   460      XNB  -0.507000
  9608   C5   -0.183    1.113    0.012   Cg   460      XNB   0.198000
  9609   H5    0.355    1.274    0.947   H1   460      XNB   0.000000
  9610   C6   -0.255    2.455   -0.742   Cg   460      XNB   0.313000
  9611  H62   -0.785    2.331   -1.687   H1   460      XNB   0.000000
  9612  H61    0.746    2.832   -0.952   H1   460      XNB   0.000000
  9613   O6   -0.955    3.415    0.068   Os   460      XNB  -0.465000
  9614   C4    0.530    0.007   -0.802   Cg   460      XNB   0.286000
  9615   H4    0.001   -0.127   -1.746   H1   460      XNB   0.000000
  9616   O4    1.890    0.395   -1.107   Oh   460      XNB  -0.707000
  9617  H4O    2.444    0.167   -0.350   Ho   460      XNB   0.430000
  9618   C3    0.533   -1.338   -0.040   Cg   460      XNB   0.234000
  9619   H3    1.007   -2.107   -0.653   H1   460      XNB   0.000000
  9620   O3    1.290   -1.200    1.198   Oh   460      XNB  -0.615000
  9621  H3O    1.128   -1.993    1.728   Ho   460      XNB   0.389000
  9622   C2   -0.916   -1.762    0.285   Cg   460      XNB   0.301000
  9623   H2   -1.436   -1.951   -0.658   H1   460      XNB   0.000000
  9624   O2   -0.893   -3.008    1.041   Os   460      XNB  -0.473000
  9625   C1   -1.069    1.118    1.389   Cg   461      XTA   0.456000
  9626   H1   -2.031    1.130    1.902   H2   461      XTA   0.000000
  9627   C2   -0.206   -0.030    1.952   Cg   461      XTA   0.245000
  9628   H2    0.146    0.221    2.953   H1   461      XTA   0.000000
  9629   C3    0.999   -0.350    1.040   Cg   461      XTA   0.124000
  9630   H3    1.683    0.496    1.115   H1   461      XTA   0.000000
  9631   C4    0.657   -0.512   -0.456   Cg   461      XTA   0.434000
  9632   H4    1.577   -0.606   -1.035   H1   461      XTA   0.000000
  9633   C5   -0.138    0.717   -0.946   Cg   461      XTA   0.157000
  9634   H5    0.517    1.587   -0.857   H1   461      XTA   0.000000
  9635   C6   -0.617    0.639   -2.402   Cg   461      XTA   0.304000
  9636  H62    0.220    0.413   -3.063   H1   461      XTA   0.000000
  9637  H61   -1.373   -0.138   -2.522   H1   461      XTA   0.000000
  9638   O6   -1.175    1.906   -2.775   Os   461      XTA  -0.462000
  9639   O5   -1.317    0.932   -0.063   Os   461      XTA  -0.480000
  9640   O4   -0.138   -1.699   -0.661   Oh   461      XTA  -0.731000
  9641  H4O   -0.342   -1.790   -1.595   Ho   461      XTA   0.417000
  9642   O3    1.715   -1.500    1.525   Oh   461      XTA  -0.687000
  9643  H3O    1.965   -1.358    2.441   Ho   461      XTA   0.442000
  9644   O2   -1.072   -1.176    2.058   Os   461      XTA  -0.413000
  9645   C1   -1.723    0.311    1.198   Cg   462      XTB   0.306000
  9646   H1   -1.478    1.260    1.676   H2   462      XTB   0.000000
  9647   O5   -1.552    0.470   -0.264   Os   462      XTB  -0.354000
  9648   C5   -0.191    0.893   -0.691   Cg   462      XTB   0.031000
  9649   H5    0.047    1.831   -0.186   H1   462      XTB   0.000000
  9650   C6   -0.209    1.168   -2.201   Cg   462      XTB   0.349000
  9651  H62   -0.558    0.293   -2.752   H1   462      XTB   0.000000
  9652  H61    0.792    1.420   -2.551   H1   462      XTB   0.000000
  9653   O6   -1.085    2.273   -2.461   Os   462      XTB  -0.454000
  9654   C4    0.844   -0.159   -0.227   Cg   462      XTB   0.314000
  9655   H4    1.851    0.214   -0.417   H1   462      XTB   0.000000
  9656   O4    0.654   -1.370   -0.988   Oh   462      XTB  -0.626000
  9657  H4O    0.766   -1.182   -1.922   Ho   462      XTB   0.413000
  9658   C3    0.674   -0.446    1.284   Cg   462      XTB   0.174000
  9659   H3    0.958    0.466    1.811   H1   462      XTB   0.000000
  9660   O3    1.589   -1.470    1.713   Oh   462      XTB  -0.678000
  9661  H3O    1.374   -2.295    1.272   Ho   462      XTB   0.425000
  9662   C2   -0.768   -0.784    1.723   Cg   462      XTB   0.340000
  9663   H2   -0.824   -0.836    2.811   H1   462      XTB   0.000000
  9664   O2   -1.160   -2.059    1.172   Os   462      XTB  -0.434000
  9665   C1   -1.409    0.890    0.681   Cg   463      YAA   0.448000
  9666   H1   -2.420    0.800    1.082   H2   463      YAA   0.000000
  9667   C2   -0.531   -0.243    1.262   Cg   463      YAA   0.268000
  9668   H2   -0.303   -0.038    2.310   H1   463      YAA   0.000000
  9669   C3    0.772   -0.524    0.485   Cg   463      YAA   0.335000
  9670   H3    1.210   -1.468    0.813   H1   463      YAA   0.000000
  9671   C4    0.528   -0.560   -1.038   Cg   463      YAA   0.245000
  9672   H4   -0.068   -1.443   -1.272   H1   463      YAA   0.000000
  9673   C5   -0.221    0.675   -1.551   Cg   463      YAA   0.379000
  9674  H5E   -0.445    0.570   -2.613   H1   463      YAA   0.000000
  9675  H5A    0.377    1.577   -1.414   H1   463      YAA   0.000000
  9676   O5   -1.487    0.804   -0.799   Os   463      YAA  -0.564000
  9677   O4    1.777   -0.675   -1.738   Os   463      YAA  -0.508000
  9678   O3    1.692    0.535    0.813   Oh   463      YAA  -0.772000
  9679  H3O    1.847    0.544    1.760   Ho   463      YAA   0.461000
  9680   O2   -1.320   -1.444    1.221   Os   463      YAA  -0.486000
  9681   C1   -1.694   -0.144    0.776   Cg   464      YAB   0.379000
  9682   H1   -1.338   -0.047    1.803   H2   464      YAB   0.000000
  9683   O5   -1.544    1.148    0.100   Os   464      YAB  -0.529000
  9684   C5   -0.137    1.591   -0.071   Cg   464      YAB   0.356000
  9685  H5E   -0.127    2.529   -0.627   H1   464      YAB   0.000000
  9686  H5A    0.303    1.777    0.910   H1   464      YAB   0.000000
  9687   C4    0.671    0.516   -0.834   Cg   464      YAB   0.224000
  9688   H4    0.266    0.439   -1.844   H1   464      YAB   0.000000
  9689   O4    2.069    0.915   -0.948   Os   464      YAB  -0.484000
  9690   C3    0.557   -0.866   -0.140   Cg   464      YAB   0.297000
  9691   H3    1.078   -1.614   -0.740   H1   464      YAB   0.000000
  9692   O3    1.198   -0.810    1.164   Oh   464      YAB  -0.668000
  9693  H3O    2.060   -0.389    1.049   Ho   464      YAB   0.407000
  9694   C2   -0.916   -1.286    0.044   Cg   464      YAB   0.300000
  9695   H2   -0.972   -2.201    0.635   H1   464      YAB   0.000000
  9696   O2   -1.476   -1.559   -1.277   Os   464      YAB  -0.476000
  9697   C1   -0.722    1.548   -0.718   Cg   465      YDA   0.398000
  9698   H1   -0.550    2.350   -1.435   H2   465      YDA   0.000000
  9699   C2   -0.232    0.200   -1.327   Cg   465      YDA   0.246000
  9700   H2   -0.895   -0.092   -2.143   H1   465      YDA   0.000000
  9701   C3   -0.229   -0.913   -0.249   Cg   465      YDA   0.184000
  9702   H3   -1.258   -1.064    0.078   H1   465      YDA   0.000000
  9703   C4    0.620   -0.498    0.973   Cg   465      YDA   0.351000
  9704   H4    1.666   -0.381    0.685   H1   465      YDA   0.000000
  9705   C5    0.089    0.823    1.568   Cg   465      YDA   0.275000
  9706  H5E    0.754    1.170    2.360   H1   465      YDA   0.000000
  9707  H5A   -0.897    0.661    2.009   H1   465      YDA   0.000000
  9708   O5   -0.025    1.887    0.532   Os   465      YDA  -0.487000
  9709   O4    0.523   -1.528    1.985   Os   465      YDA  -0.483000
  9710   O3    0.236   -2.183   -0.797   Oh   465      YDA  -0.655000
  9711  H3O   -0.188   -2.353   -1.644   Ho   465      YDA   0.417000
  9712   O2    1.107    0.372   -1.878   Os   465      YDA  -0.440000
  9713   C1    0.971    0.815    1.470   Cg   466      YDB   0.448000
  9714   H1    1.156    1.762    0.960   H2   466      YDB   0.000000
  9715   O5   -0.474    0.719    1.775   Os   466      YDB  -0.519000
  9716   C5   -1.370    0.781    0.599   Cg   466      YDB   0.275000
  9717  H5E   -2.401    0.658    0.928   H1   466      YDB   0.000000
  9718  H5A   -1.275    1.767    0.138   H1   466      YDB   0.000000
  9719   C4   -0.997   -0.322   -0.408   Cg   466      YDB   0.335000
  9720   H4   -1.302   -1.292   -0.013   H1   466      YDB   0.000000
  9721   O4   -1.723   -0.052   -1.617   Os   466      YDB  -0.467000
  9722   C3    0.513   -0.322   -0.725   Cg   466      YDB   0.201000
  9723   H3    0.761    0.584   -1.282   H1   466      YDB   0.000000
  9724   O3    0.838   -1.455   -1.552   Oh   466      YDB  -0.701000
  9725  H3O    0.323   -1.419   -2.361   Ho   466      YDB   0.432000
  9726   C2    1.382   -0.354    0.550   Cg   466      YDB   0.226000
  9727   H2    2.438   -0.274    0.287   H1   466      YDB   0.000000
  9728   O2    1.160   -1.598    1.252   Os   466      YDB  -0.424000
  9729   C1   -0.931    0.883    1.517   Cg   467      YEA   0.480000
  9730   H1   -1.865    0.946    2.076   H2   467      YEA   0.000000
  9731   C2   -0.115   -0.325    2.029   Cg   467      YEA   0.179000
  9732   H2    0.303   -0.103    3.013   H1   467      YEA   0.000000
  9733   C3    1.001   -0.803    1.080   Cg   467      YEA   0.328000
  9734   H3    1.376   -1.776    1.401   H1   467      YEA   0.000000
  9735   C4    0.514   -0.887   -0.383   Cg   467      YEA   0.261000
  9736   H4   -0.206   -1.703   -0.456   H1   467      YEA   0.000000
  9737   C5   -0.165    0.408   -0.869   Cg   467      YEA   0.374000
  9738   H5    0.562    1.223   -0.858   H1   467      YEA   0.000000
  9739   C6   -0.778    0.303   -2.273   Cg   467      YEA   0.259000
  9740  H62   -0.023    0.000   -2.998   H1   467      YEA   0.000000
  9741  H61   -1.585   -0.431   -2.288   H1   467      YEA   0.000000
  9742   O6   -1.293    1.587   -2.653   Oh   467      YEA  -0.663000
  9743  H6O   -0.581    2.230   -2.653   Ho   467      YEA   0.406000
  9744   O5   -1.261    0.731    0.080   Os   467      YEA  -0.587000
  9745   O4    1.626   -1.207   -1.238   Os   467      YEA  -0.500000
  9746   O3    2.079    0.149    1.187   Oh   467      YEA  -0.714000
  9747  H3O    2.378    0.191    2.098   Ho   467      YEA   0.420000
  9748   O2   -1.037   -1.415    2.188   Os   467      YEA  -0.437000
  9749   C1   -1.558   -0.836    0.962   Cg   468      YEB   0.488000
  9750   H1   -1.182   -0.733    1.980   H2   468      YEB   0.000000
  9751   O5   -1.424    0.451    0.270   Os   468      YEB  -0.532000
  9752   C5   -0.010    0.908    0.055   Cg   468      YEB   0.257000
  9753   H5    0.447    1.078    1.032   H1   468      YEB   0.000000
  9754   C6   -0.023    2.242   -0.717   Cg   468      YEB   0.278000
  9755  H62   -0.474    2.102   -1.700   H1   468      YEB   0.000000
  9756  H61    0.992    2.615   -0.855   H1   468      YEB   0.000000
  9757   O6   -0.784    3.224    0.010   Oh   468      YEB  -0.677000
  9758  H6O   -1.635    2.835    0.234   Ho   468      YEB   0.408000
  9759   C4    0.786   -0.189   -0.694   Cg   468      YEB   0.320000
  9760   H4    0.378   -0.288   -1.701   H1   468      YEB   0.000000
  9761   O4    2.186    0.192   -0.822   Os   468      YEB  -0.498000
  9762   C3    0.670   -1.560    0.029   Cg   468      YEB   0.315000
  9763   H3    1.192   -2.319   -0.555   H1   468      YEB   0.000000
  9764   O3    1.288   -1.499    1.344   Oh   468      YEB  -0.681000
  9765  H3O    2.172   -1.122    1.247   Ho   468      YEB   0.403000
  9766   C2   -0.802   -1.973    0.209   Cg   468      YEB   0.184000
  9767   H2   -0.860   -2.895    0.790   H1   468      YEB   0.000000
  9768   O2   -1.360   -2.234   -1.119   Os   468      YEB  -0.459000
  9769   C1   -0.751    1.458   -1.120   Cg   469      YFA   0.399000
  9770   H1   -0.524    2.317   -1.753   H2   469      YFA   0.000000
  9771   C2   -0.240    0.155   -1.823   Cg   469      YFA   0.456000
  9772   H2    0.826    0.280   -2.017   H1   469      YFA   0.000000
  9773   C3   -0.443   -1.061   -0.884   Cg   469      YFA   0.228000
  9774   H3   -1.505   -1.173   -0.663   H1   469      YFA   0.000000
  9775   C4    0.315   -0.833    0.448   Cg   469      YFA   0.263000
  9776   H4    0.102   -1.662    1.124   H1   469      YFA   0.000000
  9777   C5   -0.121    0.493    1.130   Cg   469      YFA   0.187000
  9778   H5   -1.157    0.366    1.448   H1   469      YFA   0.000000
  9779   C6    0.686    0.882    2.371   Cg   469      YFA   0.065000
  9780  H63    0.674    0.086    3.116   Hc   469      YFA   0.000000
  9781  H62    0.274    1.774    2.845   Hc   469      YFA   0.000000
  9782  H61    1.729    1.094    2.132   Hc   469      YFA   0.000000
  9783   O5   -0.079    1.644    0.176   Os   469      YFA  -0.494000
  9784   O4    1.744   -0.822    0.188   Os   469      YFA  -0.486000
  9785   O3    0.014   -2.313   -1.491   Oh   469      YFA  -0.693000
  9786  H3O   -0.659   -2.621   -2.109   Ho   469      YFA   0.426000
  9787   O2   -0.885   -0.063   -3.118   Os   469      YFA  -0.545000
  9788   C1   -1.588    0.503    1.104   Cg   470      YFB   0.418000
  9789   H1   -1.287    1.470    1.512   H2   470      YFB   0.000000
  9790   O5   -1.492    0.566   -0.370   Os   470      YFB  -0.442000
  9791   C5   -0.132    0.730   -0.934   Cg   470      YFB   0.106000
  9792   H5    0.301    1.645   -0.523   H1   470      YFB   0.000000
  9793   C6   -0.262    0.924   -2.447   Cg   470      YFB   0.092000
  9794  H63    0.716    1.051   -2.913   Hc   470      YFB   0.000000
  9795  H62   -0.749    0.075   -2.928   Hc   470      YFB   0.000000
  9796  H61   -0.850    1.813   -2.681   Hc   470      YFB   0.000000
  9797   C4    0.740   -0.461   -0.485   Cg   470      YFB   0.229000
  9798   H4    1.760   -0.334   -0.852   H1   470      YFB   0.000000
  9799   O4    0.189   -1.674   -1.044   Os   470      YFB  -0.430000
  9800   C3    0.743   -0.550    1.054   Cg   470      YFB   0.255000
  9801   H3    1.250    0.336    1.440   H1   470      YFB   0.000000
  9802   O3    1.499   -1.706    1.463   Oh   470      YFB  -0.676000
  9803  H3O    1.522   -1.750    2.421   Ho   470      YFB   0.427000
  9804   C2   -0.676   -0.617    1.654   Cg   470      YFB   0.346000
  9805   H2   -1.121   -1.594    1.453   H1   470      YFB   0.000000
  9806   O2   -0.564   -0.427    3.076   Os   470      YFB  -0.519000
  9807   C1   -0.878   -0.579    1.745   Cg   471      YGA   0.509000
  9808   H1   -1.787   -0.940    2.226   H2   471      YGA   0.000000
  9809   C2   -0.162   -1.757    1.023   Cg   471      YGA   0.246000
  9810   H2   -0.899   -2.253    0.390   H1   471      YGA   0.000000
  9811   C3    0.988   -1.253    0.126   Cg   471      YGA   0.286000
  9812   H3    1.797   -0.878    0.756   H1   471      YGA   0.000000
  9813   C4    0.526   -0.141   -0.844   Cg   471      YGA   0.254000
  9814   H4   -0.181   -0.558   -1.565   H1   471      YGA   0.000000
  9815   C5   -0.146    1.021   -0.083   Cg   471      YGA   0.283000
  9816   H5    0.607    1.498    0.548   H1   471      YGA   0.000000
  9817   C6   -0.734    2.090   -1.033   Cg   471      YGA   0.276000
  9818  H62   -0.021    2.342   -1.818   H1   471      YGA   0.000000
  9819  H61   -1.639    1.708   -1.510   H1   471      YGA   0.000000
  9820   O6   -1.051    3.300   -0.311   Oh   471      YGA  -0.682000
  9821  H6O   -0.249    3.802   -0.153   Ho   471      YGA   0.418000
  9822   O5   -1.230    0.482    0.802   Os   471      YGA  -0.574000
  9823   O4    1.679    0.368   -1.562   Os   471      YGA  -0.468000
  9824   O3    1.488   -2.371   -0.655   Oh   471      YGA  -0.699000
  9825  H3O    1.549   -3.133   -0.062   Ho   471      YGA   0.427000
  9826   O2    0.342   -2.747    1.979   Os   471      YGA  -0.470000
  9827   C1   -1.443   -0.797    1.079   Cg   472      YGB   0.384000
  9828   H1   -1.048   -0.685    2.090   H2   472      YGB   0.000000
  9829   O5   -1.383    0.496    0.392   Os   472      YGB  -0.471000
  9830   C5   -0.007    1.033    0.161   Cg   472      YGB   0.225000
  9831   H5    0.477    1.166    1.131   H1   472      YGB   0.000000
  9832   C6   -0.105    2.406   -0.531   Cg   472      YGB   0.282000
  9833  H62   -0.574    2.302   -1.511   H1   472      YGB   0.000000
  9834  H61    0.886    2.838   -0.670   H1   472      YGB   0.000000
  9835   O6   -0.895    3.303    0.272   Oh   472      YGB  -0.688000
  9836  H6O   -1.735    2.874    0.464   Ho   472      YGB   0.424000
  9837   C4    0.797    0.010   -0.668   Cg   472      YGB   0.276000
  9838   H4    0.368   -0.060   -1.670   H1   472      YGB   0.000000
  9839   O4    2.166    0.467   -0.778   Os   472      YGB  -0.468000
  9840   C3    0.781   -1.389   -0.004   Cg   472      YGB   0.284000
  9841   H3    1.340   -1.345    0.933   H1   472      YGB   0.000000
  9842   O3    1.438   -2.336   -0.890   Oh   472      YGB  -0.709000
  9843  H3O    1.346   -3.214   -0.495   Ho   472      YGB   0.432000
  9844   C2   -0.655   -1.877    0.289   Cg   472      YGB   0.310000
  9845   H2   -1.168   -2.080   -0.653   H1   472      YGB   0.000000
  9846   O2   -0.587   -3.112    1.061   Os   472      YGB  -0.475000
  9847   C1   -0.641    1.565   -1.191   Cg   473      YHA   0.394000
  9848   H1   -0.300    2.410   -1.789   H2   473      YHA   0.000000
  9849   C2   -0.281    0.242   -1.921   Cg   473      YHA   0.248000
  9850   H2   -0.907    0.132   -2.808   H1   473      YHA   0.000000
  9851   C3   -0.496   -0.971   -0.989   Cg   473      YHA   0.236000
  9852   H3   -1.566   -1.066   -0.790   H1   473      YHA   0.000000
  9853   C4    0.250   -0.820    0.355   Cg   473      YHA   0.187000
  9854   H4    1.327   -0.816    0.180   H1   473      YHA   0.000000
  9855   C5   -0.170    0.494    1.059   Cg   473      YHA   0.279000
  9856   H5   -1.222    0.422    1.343   H1   473      YHA   0.000000
  9857   C6    0.647    0.815    2.312   Cg   473      YHA   0.023000
  9858  H63    0.540    0.037    3.069   Hc   473      YHA   0.000000
  9859  H62    0.323    1.752    2.768   Hc   473      YHA   0.000000
  9860  H61    1.710    0.909    2.087   Hc   473      YHA   0.000000
  9861   O5   -0.018    1.653    0.141   Os   473      YHA  -0.461000
  9862   O4   -0.083   -1.954    1.205   Os   473      YHA  -0.433000
  9863   O3   -0.061   -2.185   -1.656   Oh   473      YHA  -0.649000
  9864  H3O   -0.160   -2.904   -1.020   Ho   473      YHA   0.425000
  9865   O2    1.108    0.287   -2.355   Os   473      YHA  -0.443000
  9866   C1   -1.967   -0.440   -0.513   Cg   474      YHB   0.381000
  9867   H1   -1.756   -1.188   -1.279   H2   474      YHB   0.000000
  9868   O5   -1.266   -0.828    0.730   Os   474      YHB  -0.427000
  9869   C5    0.208   -0.960    0.624   Cg   474      YHB   0.172000
  9870   H5    0.423   -1.769   -0.076   H1   474      YHB   0.000000
  9871  C6M    0.722   -1.365    2.007   Cg   474      YHB   0.039000
  9872  H1M    0.256   -2.291    2.348   Hc   474      YHB   0.000000
  9873  H2M    0.516   -0.598    2.755   Hc   474      YHB   0.000000
  9874  H3M    1.800   -1.533    1.998   Hc   474      YHB   0.000000
  9875   C4    0.812    0.357    0.084   Cg   474      YHB   0.388000
  9876   H4    0.785    1.123    0.862   H1   474      YHB   0.000000
  9877   O4    2.179    0.094   -0.276   Os   474      YHB  -0.490000
  9878   C3    0.074    0.862   -1.175   Cg   474      YHB   0.182000
  9879   H3    0.275    0.179   -2.003   H1   474      YHB   0.000000
  9880   O3    0.570    2.163   -1.543   Oh   474      YHB  -0.665000
  9881  H3O    1.517    2.113   -1.692   Ho   474      YHB   0.418000
  9882   C2   -1.453    0.937   -0.978   Cg   474      YHB   0.243000
  9883   H2   -1.938    1.225   -1.912   H1   474      YHB   0.000000
  9884   O2   -1.758    1.919    0.039   Os   474      YHB  -0.435000
  9885   C1   -1.024    0.825    1.473   Cg   475      YKA   0.473000
  9886   H1   -1.957    0.850    2.035   H2   475      YKA   0.000000
  9887   C2   -0.164   -0.353    1.981   Cg   475      YKA   0.281000
  9888   H2   -0.813   -1.229    1.981   H1   475      YKA   0.000000
  9889   C3    1.055   -0.705    1.100   Cg   475      YKA   0.354000
  9890   H3    1.506   -1.636    1.447   H1   475      YKA   0.000000
  9891   C4    0.654   -0.829   -0.382   Cg   475      YKA   0.196000
  9892   H4    1.549   -0.916   -1.000   H1   475      YKA   0.000000
  9893   C5   -0.200    0.363   -0.882   Cg   475      YKA   0.301000
  9894   H5    0.436    1.250   -0.861   H1   475      YKA   0.000000
  9895   C6   -0.744    0.214   -2.309   Cg   475      YKA   0.287000
  9896  H62    0.066   -0.018   -3.000   H1   475      YKA   0.000000
  9897  H61   -1.485   -0.586   -2.362   H1   475      YKA   0.000000
  9898   O6   -1.353    1.451   -2.706   Oh   475      YKA  -0.691000
  9899  H6O   -0.700    2.154   -2.673   Ho   475      YKA   0.422000
  9900   O5   -1.342    0.592    0.046   Os   475      YKA  -0.540000
  9901   O4   -0.100   -2.047   -0.522   Os   475      YKA  -0.486000
  9902   O3    2.048    0.334    1.188   Oh   475      YKA  -0.744000
  9903  H3O    2.332    0.429    2.100   Ho   475      YKA   0.436000
  9904   O2    0.236   -0.143    3.347   Os   475      YKA  -0.483000
  9905   C1   -1.463   -0.745    1.019   Cg   476      YKB   0.449000
  9906   H1   -1.069   -0.595    2.025   H2   476      YKB   0.000000
  9907   O5   -1.371    0.507    0.264   Os   476      YKB  -0.514000
  9908   C5    0.024    0.965   -0.037   Cg   476      YKB   0.303000
  9909   H5    0.526    1.161    0.912   H1   476      YKB   0.000000
  9910   C6   -0.030    2.293   -0.819   Cg   476      YKB   0.259000
  9911  H62   -0.597    2.171   -1.742   H1   476      YKB   0.000000
  9912  H61    0.978    2.617   -1.077   H1   476      YKB   0.000000
  9913   O6   -0.655    3.316   -0.018   Oh   476      YKB  -0.670000
  9914  H6O   -1.535    3.013    0.225   Ho   476      YKB   0.416000
  9915   C4    0.822   -0.143   -0.777   Cg   476      YKB   0.217000
  9916   H4    1.865    0.169   -0.858   H1   476      YKB   0.000000
  9917   O4    0.314   -0.338   -2.126   Os   476      YKB  -0.469000
  9918   C3    0.746   -1.486   -0.017   Cg   476      YKB   0.253000
  9919   H3    1.223   -2.266   -0.611   H1   476      YKB   0.000000
  9920   O3    1.495   -1.345    1.219   Oh   476      YKB  -0.710000
  9921  H3O    1.379   -2.165    1.720   Ho   476      YKB   0.442000
  9922   C2   -0.714   -1.897    0.286   Cg   476      YKB   0.308000
  9923   H2   -1.220   -2.101   -0.659   H1   476      YKB   0.000000
  9924   O2   -0.717   -3.131    1.071   Os   476      YKB  -0.478000
  9925   C1   -1.068    0.898    1.424   Cg   477      YLA   0.465000
  9926   H1   -2.019    0.911    1.957   H2   477      YLA   0.000000
  9927   C2   -0.204   -0.267    1.962   Cg   477      YLA   0.339000
  9928   H2   -0.822   -1.166    1.975   H1   477      YLA   0.000000
  9929   C3    1.041   -0.526    1.091   Cg   477      YLA   0.253000
  9930   H3    1.718    0.325    1.172   H1   477      YLA   0.000000
  9931   C4    0.669   -0.719   -0.395   Cg   477      YLA   0.204000
  9932   H4    1.576   -0.820   -0.992   H1   477      YLA   0.000000
  9933   C5   -0.157    0.482   -0.904   Cg   477      YLA   0.216000
  9934   H5    0.476    1.369   -0.835   H1   477      YLA   0.000000
  9935   C6   -0.642    0.366   -2.356   Cg   477      YLA   0.308000
  9936  H62    0.197    0.152   -3.018   H1   477      YLA   0.000000
  9937  H61   -1.377   -0.434   -2.458   H1   477      YLA   0.000000
  9938   O6   -1.238    1.610   -2.746   Oh   477      YLA  -0.684000
  9939  H6O   -0.590    2.314   -2.669   Ho   477      YLA   0.418000
  9940   O5   -1.338    0.679   -0.016   Os   477      YLA  -0.527000
  9941   O4   -0.126   -1.916   -0.549   Os   477      YLA  -0.431000
  9942   O3    1.736   -1.697    1.560   Oh   477      YLA  -0.701000
  9943  H3O    1.978   -1.577    2.481   Ho   477      YLA   0.433000
  9944   O2    0.191    0.016    3.317   Os   477      YLA  -0.487000
  9945   C1   -1.448   -0.778    1.092   Cg   478      YLB   0.374000
  9946   H1   -1.055   -0.669    2.104   H2   478      YLB   0.000000
  9947   O5   -1.371    0.523    0.414   Os   478      YLB  -0.402000
  9948   C5    0.005    1.032    0.127   Cg   478      YLB   0.140000
  9949   H5    0.520    1.168    1.080   H1   478      YLB   0.000000
  9950   C6   -0.082    2.404   -0.566   Cg   478      YLB   0.319000
  9951  H62   -0.674    2.340   -1.480   H1   478      YLB   0.000000
  9952  H61    0.915    2.762   -0.823   H1   478      YLB   0.000000
  9953   O6   -0.698    3.343    0.330   Oh   478      YLB  -0.693000
  9954  H6O   -1.567    3.003    0.561   Ho   478      YLB   0.419000
  9955   C4    0.797   -0.013   -0.690   Cg   478      YLB   0.203000
  9956   H4    1.830    0.323   -0.800   H1   478      YLB   0.000000
  9957   O4    0.214   -0.142   -2.011   Os   478      YLB  -0.421000
  9958   C3    0.780   -1.385    0.022   Cg   478      YLB   0.259000
  9959   H3    1.315   -1.282    0.968   H1   478      YLB   0.000000
  9960   O3    1.499   -2.353   -0.792   Oh   478      YLB  -0.694000
  9961  H3O    1.431   -3.210   -0.349   Ho   478      YLB   0.433000
  9962   C2   -0.658   -1.873    0.317   Cg   478      YLB   0.357000
  9963   H2   -1.170   -2.100   -0.621   H1   478      YLB   0.000000
  9964   O2   -0.583   -3.091    1.117   Os   478      YLB  -0.488000
  9965   C1   -1.042   -0.562    1.686   Cg   479      YMA   0.433000
  9966   H1   -2.007   -0.879    2.081   H2   479      YMA   0.000000
  9967   C2   -0.336   -1.768    1.004   Cg   479      YMA   0.245000
  9968   H2   -0.032   -2.487    1.766   H1   479      YMA   0.000000
  9969   C3    0.911   -1.297    0.223   Cg   479      YMA   0.252000
  9970   H3    1.638   -0.902    0.935   H1   479      YMA   0.000000
  9971   C4    0.559   -0.184   -0.795   Cg   479      YMA   0.326000
  9972   H4   -0.113   -0.579   -1.559   H1   479      YMA   0.000000
  9973   C5   -0.103    1.017   -0.081   Cg   479      YMA   0.276000
  9974   H5    0.636    1.469    0.583   H1   479      YMA   0.000000
  9975   C6   -0.590    2.091   -1.078   Cg   479      YMA   0.266000
  9976  H62    0.184    2.309   -1.814   H1   479      YMA   0.000000
  9977  H61   -1.471    1.733   -1.612   H1   479      YMA   0.000000
  9978   O6   -0.915    3.320   -0.394   Oh   479      YMA  -0.688000
  9979  H6O   -0.110    3.758   -0.109   Ho   479      YMA   0.422000
  9980   O5   -1.256    0.555    0.755   Os   479      YMA  -0.507000
  9981   O4    1.782    0.267   -1.434   Os   479      YMA  -0.489000
  9982   O3    1.528   -2.439   -0.449   Oh   479      YMA  -0.696000
  9983  H3O    1.995   -2.982    0.196   Ho   479      YMA   0.431000
  9984   O2   -1.261   -2.440    0.097   Os   479      YMA  -0.465000
  9985   C1   -1.496   -0.797    1.144   Cg   480      YMB   0.314000
  9986   H1   -1.014   -0.754    2.122   H2   480      YMB   0.000000
  9987   O5   -1.388    0.523    0.507   Os   480      YMB  -0.393000
  9988   C5    0.001    0.982    0.184   Cg   480      YMB   0.206000
  9989   H5    0.525    1.149    1.128   H1   480      YMB   0.000000
  9990   C6   -0.078    2.318   -0.576   Cg   480      YMB   0.273000
  9991  H62   -0.600    2.182   -1.524   H1   480      YMB   0.000000
  9992  H61    0.921    2.698   -0.787   H1   480      YMB   0.000000
  9993   O6   -0.787    3.289    0.214   Oh   480      YMB  -0.680000
  9994  H6O   -1.651    2.927    0.437   Ho   480      YMB   0.419000
  9995   C4    0.765   -0.098   -0.623   Cg   480      YMB   0.349000
  9996   H4    0.356   -0.163   -1.633   H1   480      YMB   0.000000
  9997   O4    2.159    0.298   -0.713   Os   480      YMB  -0.497000
  9998   C3    0.660   -1.478    0.082   Cg   480      YMB   0.263000
  9999   H3    1.109   -1.397    1.074   H1   480      YMB   0.000000
 10000   O3    1.396   -2.513   -0.632   Oh   480      YMB  -0.692000
 10001  H3O    2.328   -2.464   -0.400   Ho   480      YMB   0.430000
 10002   C2   -0.822   -1.885    0.263   Cg   480      YMB   0.241000
 10003   H2   -0.886   -2.855    0.759   H1   480      YMB   0.000000
 10004   O2   -1.498   -1.964   -1.027   Os   480      YMB  -0.427000
 10005   C1   -0.998    0.934    1.537   Cg   481      YNA   0.478000
 10006   H1   -1.944    1.028    2.070   H2   481      YNA   0.000000
 10007   C2   -0.261   -0.327    2.042   Cg   481      YNA   0.228000
 10008   H2   -0.978   -1.148    1.990   H1   481      YNA   0.000000
 10009   C3    0.961   -0.747    1.202   Cg   481      YNA   0.330000
 10010   H3    1.343   -1.706    1.555   H1   481      YNA   0.000000
 10011   C4    0.526   -0.863   -0.275   Cg   481      YNA   0.167000
 10012   H4   -0.170   -1.699   -0.357   H1   481      YNA   0.000000
 10013   C5   -0.167    0.406   -0.818   Cg   481      YNA   0.404000
 10014   H5    0.551    1.229   -0.827   H1   481      YNA   0.000000
 10015   C6   -0.751    0.235   -2.228   Cg   481      YNA   0.280000
 10016  H62    0.023   -0.083   -2.926   H1   481      YNA   0.000000
 10017  H61   -1.545   -0.513   -2.227   H1   481      YNA   0.000000
 10018   O6   -1.281    1.493   -2.669   Oh   481      YNA  -0.663000
 10019  H6O   -0.580    2.148   -2.685   Ho   481      YNA   0.396000
 10020   O5   -1.287    0.763    0.095   Os   481      YNA  -0.611000
 10021   O4    1.676   -1.170   -1.083   Os   481      YNA  -0.483000
 10022   O3    2.002    0.247    1.329   Oh   481      YNA  -0.714000
 10023  H3O    2.781   -0.043    0.848   Ho   481      YNA   0.441000
 10024   O2    0.099   -0.184    3.427   Os   481      YNA  -0.447000
 10025   C1   -1.455   -0.775    1.019   Cg   482      YNB   0.422000
 10026   H1   -1.053   -0.653    2.027   H2   482      YNB   0.000000
 10027   O5   -1.361    0.504    0.300   Os   482      YNB  -0.507000
 10028   C5    0.027    0.971   -0.025   Cg   482      YNB   0.198000
 10029   H5    0.565    1.133    0.910   H1   482      YNB   0.000000
 10030   C6   -0.045    2.313   -0.779   Cg   482      YNB   0.313000
 10031  H62   -0.575    2.189   -1.724   H1   482      YNB   0.000000
 10032  H61    0.956    2.691   -0.989   H1   482      YNB   0.000000
 10033   O6   -0.745    3.273    0.031   Oh   482      YNB  -0.689000
 10034  H6O   -1.547    2.853    0.355   Ho   482      YNB   0.418000
 10035   C4    0.740   -0.134   -0.839   Cg   482      YNB   0.286000
 10036   H4    0.211   -0.269   -1.783   H1   482      YNB   0.000000
 10037   O4    2.100    0.253   -1.145   Os   482      YNB  -0.471000
 10038   C3    0.743   -1.479   -0.077   Cg   482      YNB   0.234000
 10039   H3    1.217   -2.249   -0.690   H1   482      YNB   0.000000
 10040   O3    1.500   -1.342    1.161   Oh   482      YNB  -0.615000
 10041  H3O    1.339   -2.134    1.691   Ho   482      YNB   0.389000
 10042   C2   -0.706   -1.903    0.247   Cg   482      YNB   0.301000
 10043   H2   -1.226   -2.092   -0.695   H1   482      YNB   0.000000
 10044   O2   -0.683   -3.150    1.003   Os   482      YNB  -0.473000
 10045   C1   -0.900   -0.212    1.750   Cg   483      YOA   0.305000
 10046   H1   -1.821   -0.552    2.223   H2   483      YOA   0.000000
 10047   C2   -0.247   -1.405    0.979   Cg   483      YOA   0.413000
 10048   H2   -1.011   -1.897    0.375   H1   483      YOA   0.000000
 10049   C3    0.894   -0.910    0.057   Cg   483      YOA   0.251000
 10050   H3    1.667   -0.459    0.684   H1   483      YOA   0.000000
 10051   C4    0.368    0.180   -0.913   Cg   483      YOA   0.267000
 10052   H4    1.176    0.501   -1.571   H1   483      YOA   0.000000
 10053   C5   -0.152    1.385   -0.108   Cg   483      YOA   0.054000
 10054   H5    0.671    1.798    0.480   H1   483      YOA   0.000000
 10055   C6   -0.578    2.470   -1.155    C   483      YOA   0.896000
 10056  O6A    0.211    3.428   -1.320   O2   483      YOA  -0.822000
 10057  O6B   -1.621    2.251   -1.818   O2   483      YOA  -0.822000
 10058   O5   -1.220    0.913    0.857   Os   483      YOA  -0.424000
 10059   O4   -0.733   -0.314   -1.726   Os   483      YOA  -0.469000
 10060   O3    1.527   -2.014   -0.658   Oh   483      YOA  -0.725000
 10061  H3O    1.502   -2.783   -0.078   Ho   483      YOA   0.416000
 10062   O2    0.267   -2.379    1.943   Os   483      YOA  -0.534000
 10063   C1   -1.629   -0.498    1.170   Cg   484      YOB   0.301000
 10064   H1   -1.219   -0.400    2.176   H2   484      YOB   0.000000
 10065   O5   -1.542    0.800    0.501   Os   484      YOB  -0.414000
 10066   C5   -0.158    1.282    0.153   Cg   484      YOB   0.049000
 10067   H5    0.393    1.346    1.093   H1   484      YOB   0.000000
 10068   C6   -0.002    2.708   -0.495    C   484      YOB   0.838000
 10069  O6B    1.160    3.037   -0.840   O2   484      YOB  -0.794000
 10070  O6A   -1.001    3.465   -0.534   O2   484      YOB  -0.794000
 10071   C4    0.544    0.223   -0.714   Cg   484      YOB   0.260000
 10072   H4    1.576    0.523   -0.902   H1   484      YOB   0.000000
 10073   O4   -0.140    0.101   -1.986   Os   484      YOB  -0.453000
 10074   C3    0.557   -1.151   -0.002   Cg   484      YOB   0.259000
 10075   H3    1.141   -1.052    0.916   H1   484      YOB   0.000000
 10076   O3    1.246   -2.119   -0.861   Oh   484      YOB  -0.708000
 10077  H3O    2.195   -1.996   -0.774   Ho   484      YOB   0.404000
 10078   C2   -0.875   -1.613    0.382   Cg   484      YOB   0.383000
 10079   H2   -1.432   -1.863   -0.522   H1   484      YOB   0.000000
 10080   O2   -0.815   -2.793    1.240   Os   484      YOB  -0.525000
 10081   C1   -0.750    1.491   -1.192   Cg   485      YQA   0.465000
 10082   H1   -0.514    2.338   -1.837   H1   485      YQA   0.000000
 10083   C2   -0.363    0.164   -1.905   Cg   485      YQA   0.281000
 10084   H2    0.678    0.248   -2.221   H1   485      YQA   0.000000
 10085   C3   -0.483   -1.037   -0.933   Cg   485      YQA   0.312000
 10086   H3   -1.538   -1.218   -0.712   H1   485      YQA   0.000000
 10087   C4    0.288   -0.797    0.389   Cg   485      YQA   0.208000
 10088   H4    1.360   -0.784    0.181   H1   485      YQA   0.000000
 10089   C5   -0.114    0.538    1.056   Cg   485      YQA   0.234000
 10090   H5   -1.150    0.468    1.396   H1   485      YQA   0.000000
 10091   C6    0.758    0.927    2.252   Cg   485      YQA   0.060000
 10092  H63    1.808    1.022    1.972   Hc   485      YQA   0.000000
 10093  H62    0.696    0.186    3.050   Hc   485      YQA   0.000000
 10094  H61    0.445    1.882    2.677   Hc   485      YQA   0.000000
 10095   O5   -0.021    1.649    0.072   Os   485      YQA  -0.559000
 10096   O4    0.007   -1.888    1.312   Os   485      YQA  -0.455000
 10097   O3    0.074   -2.230   -1.544   Oh   485      YQA  -0.697000
 10098  H3O   -0.001   -2.946   -0.905   Ho   485      YQA   0.424000
 10099   O2   -1.179   -0.013   -3.108   Os   485      YQA  -0.467000
 10100   C1   -1.454   -0.527    1.250   Cg   486      YQB   0.391000
 10101   H1   -0.986   -0.351    2.219   H1   486      YQB   0.000000
 10102   O5   -1.427    0.704    0.463   Os   486      YQB  -0.535000
 10103   C5   -0.073    1.207    0.113   Cg   486      YQB   0.271000
 10104   H5    0.463    1.422    1.040   H1   486      YQB   0.000000
 10105   C6   -0.262    2.518   -0.654   Cg   486      YQB   0.048000
 10106  H63   -0.801    2.363   -1.590   Hc   486      YQB   0.000000
 10107  H62    0.696    2.980   -0.898   Hc   486      YQB   0.000000
 10108  H61   -0.827    3.242   -0.066   Hc   486      YQB   0.000000
 10109   C4    0.690    0.117   -0.677   Cg   486      YQB   0.250000
 10110   H4    0.225   -0.009   -1.657   H1   486      YQB   0.000000
 10111   O4    2.063    0.547   -0.864   Os   486      YQB  -0.486000
 10112   C3    0.679   -1.238    0.073   Cg   486      YQB   0.300000
 10113   H3    1.294   -1.151    0.972   H1   486      YQB   0.000000
 10114   O3    1.263   -2.254   -0.787   Oh   486      YQB  -0.689000
 10115  H3O    1.178   -3.102   -0.332   Ho   486      YQB   0.420000
 10116   C2   -0.745   -1.678    0.483   Cg   486      YQB   0.323000
 10117   H2   -1.321   -1.924   -0.412   H1   486      YQB   0.000000
 10118   O2   -0.654   -2.868    1.325   Os   486      YQB  -0.487000
 10119   C1   -1.473    0.915    0.693   Cg   487      YRA   0.488000
 10120   H1   -2.507    0.866    1.033   H2   487      YRA   0.000000
 10121   C2   -0.712   -0.323    1.223   Cg   487      YRA   0.253000
 10122   H2   -1.316   -1.193    0.963   H1   487      YRA   0.000000
 10123   C3    0.683   -0.549    0.606   Cg   487      YRA   0.345000
 10124   H3    1.091   -1.504    0.940   H1   487      YRA   0.000000
 10125   C4    0.542   -0.541   -0.929   Cg   487      YRA   0.122000
 10126   H4   -0.045   -1.412   -1.225   H1   487      YRA   0.000000
 10127   C5   -0.157    0.717   -1.470   Cg   487      YRA   0.377000
 10128  H5E   -0.323    0.626   -2.544   H1   487      YRA   0.000000
 10129  H5A    0.453    1.603   -1.293   H1   487      YRA   0.000000
 10130   O5   -1.465    0.880   -0.790   Os   487      YRA  -0.561000
 10131   O4    1.835   -0.654   -1.545   Os   487      YRA  -0.438000
 10132   O3    1.575    0.511    1.019   Oh   487      YRA  -0.737000
 10133  H3O    2.450    0.351    0.659   Ho   487      YRA   0.443000
 10134   O2   -0.633   -0.294    2.660   Os   487      YRA  -0.486000
 10135   C1   -1.689   -0.202    0.774   Cg   488      YRB   0.481000
 10136   H1   -1.360   -0.127    1.811   H2   488      YRB   0.000000
 10137   O5   -1.577    1.109    0.119   Os   488      YRB  -0.576000
 10138   C5   -0.188    1.598   -0.095   Cg   488      YRB   0.335000
 10139  H5E   -0.224    2.527   -0.663   H1   488      YRB   0.000000
 10140  H5A    0.270    1.813    0.872   H1   488      YRB   0.000000
 10141   C4    0.633    0.536   -0.867   Cg   488      YRB   0.236000
 10142   H4    0.197    0.417   -1.860   H1   488      YRB   0.000000
 10143   O4    2.007    0.979   -1.038   Os   488      YRB  -0.478000
 10144   C3    0.596   -0.829   -0.136   Cg   488      YRB   0.203000
 10145   H3    1.162   -1.566   -0.707   H1   488      YRB   0.000000
 10146   O3    1.214   -0.672    1.177   Oh   488      YRB  -0.696000
 10147  H3O    2.108   -0.329    1.065   Ho   488      YRB   0.428000
 10148   C2   -0.880   -1.284   -0.012   Cg   488      YRB   0.385000
 10149   H2   -1.298   -1.355   -1.019   H1   488      YRB   0.000000
 10150   O2   -0.971   -2.614    0.580   Os   488      YRB  -0.512000
 10151   C1   -1.060    0.899    1.443   Cg   489      YTA   0.456000
 10152   H1   -2.023    0.911    1.957   H2   489      YTA   0.000000
 10153   C2   -0.198   -0.249    2.006   Cg   489      YTA   0.245000
 10154   H2    0.155    0.002    3.007   H1   489      YTA   0.000000
 10155   C3    1.007   -0.569    1.094   Cg   489      YTA   0.124000
 10156   H3    1.691    0.277    1.170   H1   489      YTA   0.000000
 10157   C4    0.665   -0.731   -0.402   Cg   489      YTA   0.434000
 10158   H4    1.585   -0.825   -0.980   H1   489      YTA   0.000000
 10159   C5   -0.130    0.498   -0.891   Cg   489      YTA   0.157000
 10160   H5    0.525    1.368   -0.803   H1   489      YTA   0.000000
 10161   C6   -0.609    0.420   -2.348   Cg   489      YTA   0.304000
 10162  H62    0.228    0.194   -3.009   H1   489      YTA   0.000000
 10163  H61   -1.365   -0.357   -2.467   H1   489      YTA   0.000000
 10164   O6   -1.167    1.687   -2.721   Oh   489      YTA  -0.669000
 10165  H6O   -0.499    2.371   -2.629   Ho   489      YTA   0.401000
 10166   O5   -1.308    0.713   -0.009   Os   489      YTA  -0.480000
 10167   O4   -0.130   -1.918   -0.607   Os   489      YTA  -0.508000
 10168   O3    1.724   -1.719    1.580   Oh   489      YTA  -0.687000
 10169  H3O    1.973   -1.577    2.496   Ho   489      YTA   0.442000
 10170   O2   -1.064   -1.395    2.112   Os   489      YTA  -0.413000
 10171   C1   -1.586    0.149    1.210   Cg   490      YTB   0.306000
 10172   H1   -1.341    1.098    1.688   H2   490      YTB   0.000000
 10173   O5   -1.415    0.308   -0.253   Os   490      YTB  -0.354000
 10174   C5   -0.055    0.731   -0.680   Cg   490      YTB   0.031000
 10175   H5    0.184    1.669   -0.175   H1   490      YTB   0.000000
 10176   C6   -0.072    1.006   -2.190   Cg   490      YTB   0.349000
 10177  H62   -0.421    0.131   -2.741   H1   490      YTB   0.000000
 10178  H61    0.929    1.258   -2.540   H1   490      YTB   0.000000
 10179   O6   -0.949    2.111   -2.449   Oh   490      YTB  -0.666000
 10180  H6O   -1.832    1.897   -2.139   Ho   490      YTB   0.406000
 10181   C4    0.981   -0.321   -0.216   Cg   490      YTB   0.314000
 10182   H4    1.988    0.052   -0.405   H1   490      YTB   0.000000
 10183   O4    0.791   -1.532   -0.976   Os   490      YTB  -0.407000
 10184   C3    0.810   -0.608    1.295   Cg   490      YTB   0.174000
 10185   H3    1.095    0.304    1.822   H1   490      YTB   0.000000
 10186   O3    1.726   -1.632    1.725   Oh   490      YTB  -0.678000
 10187  H3O    1.510   -2.457    1.284   Ho   490      YTB   0.425000
 10188   C2   -0.632   -0.946    1.734   Cg   490      YTB   0.340000
 10189   H2   -0.687   -0.998    2.823   H1   490      YTB   0.000000
 10190   O2   -1.024   -2.222    1.183   Os   490      YTB  -0.434000
 10191   C1   -1.942    0.401    0.229   Cg   491      YUA   0.363000
 10192   H1   -1.917    1.291   -0.400   H2   491      YUA   0.000000
 10193   C2   -1.472   -0.853   -0.570   Cg   491      YUA   0.259000
 10194   H2   -1.749   -1.748   -0.010   H1   491      YUA   0.000000
 10195   C3    0.072   -0.835   -0.755   Cg   491      YUA   0.417000
 10196   H3    0.329   -0.075   -1.495   H1   491      YUA   0.000000
 10197   C4    0.849   -0.534    0.553   Cg   491      YUA   0.223000
 10198   H4    0.659   -1.343    1.262   H1   491      YUA   0.000000
 10199   C5    0.354    0.785    1.178   Cg   491      YUA   0.232000
 10200   H5    0.824    0.880    2.158   H1   491      YUA   0.000000
 10201   C6    0.854    2.043    0.342    C   491      YUA   0.697000
 10202  O6A   -0.003    2.850   -0.085   O2   491      YUA  -0.757000
 10203  O6B    2.084    2.123    0.109   O2   491      YUA  -0.757000
 10204   O5   -1.120    0.624    1.421   Os   491      YUA  -0.515000
 10205   O4    2.288   -0.486    0.307   Os   491      YUA  -0.508000
 10206   O3    0.538   -2.123   -1.245   Oh   491      YUA  -0.771000
 10207  H3O    1.496   -2.110   -1.124   Ho   491      YUA   0.417000
 10208   O2   -2.144   -0.891   -1.875   Os   491      YUA  -0.494000
 10209   C1    0.149    0.467    1.914   Cg   492      YUB   0.278000
 10210   H1    0.690    0.764    2.812   H2   492      YUB   0.000000
 10211   O5    0.187    1.586    0.949   Os   492      YUB  -0.430000
 10212   C5   -0.368    1.341   -0.437   Cg   492      YUB   0.194000
 10213   H5   -0.081    2.202   -1.042   H1   492      YUB   0.000000
 10214   C6   -1.940    1.245   -0.574    C   492      YUB   0.750000
 10215  O6B   -2.410    0.942   -1.698   O2   492      YUB  -0.783000
 10216  O6A   -2.624    1.447    0.455   O2   492      YUB  -0.783000
 10217   C4    0.334    0.102   -1.039   Cg   492      YUB   0.308000
 10218   H4    1.388    0.354   -1.175   H1   492      YUB   0.000000
 10219   O4   -0.201   -0.234   -2.351   Os   492      YUB  -0.517000
 10220   C3    0.254   -1.128   -0.096   Cg   492      YUB   0.286000
 10221   H3   -0.784   -1.443    0.018   H1   492      YUB   0.000000
 10222   O3    1.018   -2.225   -0.682   Oh   492      YUB  -0.755000
 10223  H3O    0.774   -2.239   -1.619   Ho   492      YUB   0.421000
 10224   C2    0.857   -0.766    1.280   Cg   492      YUB   0.289000
 10225   H2    1.901   -0.492    1.124   H1   492      YUB   0.000000
 10226   O2    0.856   -1.925    2.160   Os   492      YUB  -0.452000
 10227   C1   -0.686    1.539   -0.728   Cg   493      YXA   0.482000
 10228   H1   -0.535    2.322   -1.472   H2   493      YXA   0.000000
 10229   C2   -0.238    0.171   -1.308   Cg   493      YXA   0.197000
 10230   H2    0.775    0.291   -1.696   H1   493      YXA   0.000000
 10231   C3   -0.219   -0.919   -0.217   Cg   493      YXA   0.359000
 10232   H3   -1.243   -1.145    0.088   H1   493      YXA   0.000000
 10233   C4    0.611   -0.495    1.018   Cg   493      YXA   0.247000
 10234   H4    1.662   -0.407    0.740   H1   493      YXA   0.000000
 10235   C5    0.123    0.860    1.560   Cg   493      YXA   0.335000
 10236  H5E    0.794    1.211    2.344   H1   493      YXA   0.000000
 10237  H5A   -0.873    0.754    1.995   H1   493      YXA   0.000000
 10238   O5    0.069    1.881    0.478   Os   493      YXA  -0.588000
 10239   O4    0.487   -1.487    2.072   Os   493      YXA  -0.494000
 10240   O3    0.373   -2.115   -0.784   Oh   493      YXA  -0.712000
 10241  H3O   -0.002   -2.230   -1.667   Ho   493      YXA   0.421000
 10242   O2   -1.098   -0.233   -2.423   Os   493      YXA  -0.441000
 10243   C1   -1.530    0.047    1.082   Cg   494      YXB   0.248000
 10244   H1   -1.065    0.190    2.059   H2   494      YXB   0.000000
 10245   O5   -1.464    1.307    0.336   Os   494      YXB  -0.447000
 10246   C5   -0.098    1.760   -0.018   Cg   494      YXB   0.303000
 10247  H5E   -0.166    2.684   -0.591   H1   494      YXB   0.000000
 10248  H5A    0.458    1.968    0.899   H1   494      YXB   0.000000
 10249   C4    0.614    0.672   -0.846   Cg   494      YXB   0.286000
 10250   H4    0.115    0.576   -1.812   H1   494      YXB   0.000000
 10251   O4    1.983    1.086   -1.066   Os   494      YXB  -0.487000
 10252   C3    0.606   -0.692   -0.119   Cg   494      YXB   0.228000
 10253   H3    1.231   -0.623    0.774   H1   494      YXB   0.000000
 10254   O3    1.173   -1.703   -1.003   Oh   494      YXB  -0.682000
 10255  H3O    1.133   -2.557   -0.550   Ho   494      YXB   0.427000
 10256   C2   -0.827   -1.099    0.299   Cg   494      YXB   0.425000
 10257   H2   -1.413   -1.342   -0.590   H1   494      YXB   0.000000
 10258   O2   -0.749   -2.275    1.148   Os   494      YXB  -0.495000
 10259   C1   -0.959   -0.189    1.714   Cg   495      YZA   0.398000
 10260   H1   -1.861   -0.520    2.228   H2   495      YZA   0.000000
 10261   C2   -0.282   -1.401    1.022   Cg   495      YZA   0.326000
 10262   H2   -1.043   -1.904    0.424   H1   495      YZA   0.000000
 10263   C3    0.872   -0.974    0.084   Cg   495      YZA   0.300000
 10264   H3    1.713   -0.637    0.694   H1   495      YZA   0.000000
 10265   C4    0.469    0.166   -0.894   Cg   495      YZA   0.193000
 10266   H4   -0.198   -0.235   -1.659   H1   495      YZA   0.000000
 10267   C5   -0.245    1.349   -0.191   Cg   495      YZA   0.187000
 10268   H5    0.497    1.824    0.454   H1   495      YZA   0.000000
 10269   C6   -0.645    2.496   -1.228    C   495      YZA   0.798000
 10270  O6A    0.162    2.747   -2.160   O2   495      YZA  -0.787000
 10271  O6B   -1.709    3.127   -1.035   O2   495      YZA  -0.787000
 10272   O5   -1.323    0.830    0.738   Os   495      YZA  -0.544000
 10273   O4    1.655    0.697   -1.541   Os   495      YZA  -0.454000
 10274   O3    1.284   -2.158   -0.660   Oh   495      YZA  -0.743000
 10275  H3O    1.410   -2.864   -0.019   Ho   495      YZA   0.439000
 10276   O2    0.201   -2.353    2.028   Os   495      YZA  -0.520000
 10277   C1   -1.663   -0.450    1.161   Cg   496      YZB   0.251000
 10278   H1   -1.249   -0.314    2.162   H2   496      YZB   0.000000
 10279   O5   -1.538    0.803    0.423   Os   496      YZB  -0.413000
 10280   C5   -0.139    1.279    0.150   Cg   496      YZB   0.075000
 10281   H5    0.350    1.396    1.119   H1   496      YZB   0.000000
 10282   C6    0.010    2.682   -0.569    C   496      YZB   0.893000
 10283  O6B    1.139    2.971   -1.044   O2   496      YZB  -0.818000
 10284  O6A   -0.987    3.438   -0.606   O2   496      YZB  -0.818000
 10285   C4    0.604    0.174   -0.628   Cg   496      YZB   0.267000
 10286   H4    0.173    0.112   -1.630   H1   496      YZB   0.000000
 10287   O4    1.999    0.544   -0.752   Os   496      YZB  -0.498000
 10288   C3    0.519   -1.218    0.052   Cg   496      YZB   0.266000
 10289   H3    1.117   -1.200    0.965   H1   496      YZB   0.000000
 10290   O3    1.105   -2.189   -0.867   Oh   496      YZB  -0.701000
 10291  H3O    1.947   -1.807   -1.148   Ho   496      YZB   0.403000
 10292   C2   -0.937   -1.607    0.416   Cg   496      YZB   0.411000
 10293   H2   -1.486   -1.843   -0.498   H1   496      YZB   0.000000
 10294   O2   -0.965   -2.771    1.295   Os   496      YZB  -0.512000
 10295   C1   -1.439    0.919    0.887   Cg   497      ZAA   0.448000
 10296   H1   -2.450    0.829    1.288   H2   497      ZAA   0.000000
 10297   C2   -0.561   -0.215    1.468   Cg   497      ZAA   0.268000
 10298   H2   -0.333   -0.009    2.516   H1   497      ZAA   0.000000
 10299   C3    0.742   -0.495    0.692   Cg   497      ZAA   0.335000
 10300   H3    1.180   -1.439    1.019   H1   497      ZAA   0.000000
 10301   C4    0.498   -0.531   -0.832   Cg   497      ZAA   0.245000
 10302   H4   -0.098   -1.415   -1.066   H1   497      ZAA   0.000000
 10303   C5   -0.250    0.703   -1.345   Cg   497      ZAA   0.379000
 10304  H5E   -0.475    0.598   -2.407   H1   497      ZAA   0.000000
 10305  H5A    0.347    1.606   -1.208   H1   497      ZAA   0.000000
 10306   O5   -1.517    0.833   -0.593   Os   497      ZAA  -0.564000
 10307   O4    1.747   -0.646   -1.532   Oh   497      ZAA  -0.748000
 10308  H4O    2.296    0.115   -1.332   Ho   497      ZAA   0.434000
 10309   O3    1.662    0.564    1.019   Os   497      ZAA  -0.505000
 10310   O2   -1.350   -1.416    1.427   Os   497      ZAA  -0.486000
 10311   C1   -1.719   -0.202    0.951   Cg   498      ZAB   0.379000
 10312   H1   -1.363   -0.104    1.977   H2   498      ZAB   0.000000
 10313   O5   -1.569    1.091    0.275   Os   498      ZAB  -0.529000
 10314   C5   -0.162    1.533    0.103   Cg   498      ZAB   0.356000
 10315  H5E   -0.152    2.471   -0.453   H1   498      ZAB   0.000000
 10316  H5A    0.278    1.719    1.084   H1   498      ZAB   0.000000
 10317   C4    0.646    0.459   -0.660   Cg   498      ZAB   0.224000
 10318   H4    0.241    0.382   -1.670   H1   498      ZAB   0.000000
 10319   O4    2.044    0.858   -0.773   Oh   498      ZAB  -0.730000
 10320  H4O    2.434    0.473   -1.567   Ho   498      ZAB   0.440000
 10321   C3    0.532   -0.923    0.035   Cg   498      ZAB   0.297000
 10322   H3    1.053   -1.671   -0.565   H1   498      ZAB   0.000000
 10323   O3    1.173   -0.868    1.339   Os   498      ZAB  -0.455000
 10324   C2   -0.941   -1.343    0.218   Cg   498      ZAB   0.300000
 10325   H2   -0.997   -2.258    0.809   H1   498      ZAB   0.000000
 10326   O2   -1.501   -1.616   -1.102   Os   498      ZAB  -0.476000
 10327   C1   -0.777    1.549   -0.916   Cg   499      ZDA   0.398000
 10328   H1   -0.605    2.351   -1.634   H2   499      ZDA   0.000000
 10329   C2   -0.287    0.200   -1.525   Cg   499      ZDA   0.246000
 10330   H2   -0.950   -0.091   -2.341   H1   499      ZDA   0.000000
 10331   C3   -0.284   -0.912   -0.448   Cg   499      ZDA   0.184000
 10332   H3   -1.314   -1.063   -0.121   H1   499      ZDA   0.000000
 10333   C4    0.565   -0.497    0.775   Cg   499      ZDA   0.351000
 10334   H4    1.611   -0.380    0.486   H1   499      ZDA   0.000000
 10335   C5    0.034    0.824    1.370   Cg   499      ZDA   0.275000
 10336  H5E    0.699    1.170    2.161   H1   499      ZDA   0.000000
 10337  H5A   -0.952    0.662    1.810   H1   499      ZDA   0.000000
 10338   O5   -0.080    1.888    0.333   Os   499      ZDA  -0.487000
 10339   O4    0.468   -1.528    1.786   Oh   499      ZDA  -0.711000
 10340  H4O    0.638   -2.364    1.334   Ho   499      ZDA   0.422000
 10341   O3    0.181   -2.182   -0.996   Os   499      ZDA  -0.432000
 10342   O2    1.052    0.373   -2.076   Os   499      ZDA  -0.440000
 10343   C1    1.087    0.772    1.464   Cg   500      ZDB   0.448000
 10344   H1    1.271    1.719    0.954   H2   500      ZDB   0.000000
 10345   O5   -0.358    0.677    1.769   Os   500      ZDB  -0.519000
 10346   C5   -1.254    0.739    0.593   Cg   500      ZDB   0.275000
 10347  H5E   -2.286    0.616    0.922   H1   500      ZDB   0.000000
 10348  H5A   -1.160    1.724    0.133   H1   500      ZDB   0.000000
 10349   C4   -0.882   -0.365   -0.414   Cg   500      ZDB   0.335000
 10350   H4   -1.186   -1.335   -0.019   H1   500      ZDB   0.000000
 10351   O4   -1.607   -0.095   -1.623   Oh   500      ZDB  -0.709000
 10352  H4O   -1.411   -0.775   -2.272   Ho   500      ZDB   0.436000
 10353   C3    0.629   -0.365   -0.731   Cg   500      ZDB   0.201000
 10354   H3    0.877    0.541   -1.288   H1   500      ZDB   0.000000
 10355   O3    0.954   -1.498   -1.558   Os   500      ZDB  -0.463000
 10356   C2    1.498   -0.396    0.544   Cg   500      ZDB   0.226000
 10357   H2    2.553   -0.317    0.281   H1   500      ZDB   0.000000
 10358   O2    1.275   -1.641    1.246   Os   500      ZDB  -0.424000
 10359   C1   -0.926    0.918    1.680   Cg   501      ZEA   0.480000
 10360   H1   -1.860    0.981    2.240   H2   501      ZEA   0.000000
 10361   C2   -0.110   -0.290    2.192   Cg   501      ZEA   0.179000
 10362   H2    0.307   -0.068    3.177   H1   501      ZEA   0.000000
 10363   C3    1.006   -0.768    1.243   Cg   501      ZEA   0.328000
 10364   H3    1.380   -1.741    1.565   H1   501      ZEA   0.000000
 10365   C4    0.518   -0.851   -0.219   Cg   501      ZEA   0.261000
 10366   H4   -0.202   -1.668   -0.292   H1   501      ZEA   0.000000
 10367   C5   -0.161    0.444   -0.706   Cg   501      ZEA   0.374000
 10368   H5    0.567    1.258   -0.694   H1   501      ZEA   0.000000
 10369   C6   -0.773    0.338   -2.109   Cg   501      ZEA   0.259000
 10370  H62   -0.018    0.036   -2.834   H1   501      ZEA   0.000000
 10371  H61   -1.580   -0.396   -2.124   H1   501      ZEA   0.000000
 10372   O6   -1.288    1.622   -2.489   Oh   501      ZEA  -0.663000
 10373  H6O   -0.576    2.265   -2.489   Ho   501      ZEA   0.406000
 10374   O5   -1.256    0.766    0.243   Os   501      ZEA  -0.587000
 10375   O4    1.631   -1.171   -1.074   Oh   501      ZEA  -0.721000
 10376  H4O    2.291   -0.477   -1.013   Ho   501      ZEA   0.415000
 10377   O3    2.083    0.184    1.351   Os   501      ZEA  -0.488000
 10378   O2   -1.033   -1.380    2.352   Os   501      ZEA  -0.437000
 10379   C1   -1.580   -0.878    1.102   Cg   502      ZEB   0.488000
 10380   H1   -1.203   -0.775    2.120   H2   502      ZEB   0.000000
 10381   O5   -1.445    0.410    0.410   Os   502      ZEB  -0.532000
 10382   C5   -0.032    0.867    0.195   Cg   502      ZEB   0.257000
 10383   H5    0.426    1.036    1.172   H1   502      ZEB   0.000000
 10384   C6   -0.044    2.200   -0.577   Cg   502      ZEB   0.278000
 10385  H62   -0.495    2.061   -1.560   H1   502      ZEB   0.000000
 10386  H61    0.971    2.573   -0.715   H1   502      ZEB   0.000000
 10387   O6   -0.805    3.182    0.150   Oh   502      ZEB  -0.677000
 10388  H6O   -1.656    2.793    0.374   Ho   502      ZEB   0.408000
 10389   C4    0.765   -0.231   -0.554   Cg   502      ZEB   0.320000
 10390   H4    0.357   -0.330   -1.561   H1   502      ZEB   0.000000
 10391   O4    2.165    0.150   -0.682   Oh   502      ZEB  -0.724000
 10392  H4O    2.572   -0.328   -1.413   Ho   502      ZEB   0.420000
 10393   C3    0.649   -1.601    0.169   Cg   502      ZEB   0.315000
 10394   H3    1.171   -2.360   -0.415   H1   502      ZEB   0.000000
 10395   O3    1.267   -1.541    1.484   Os   502      ZEB  -0.472000
 10396   C2   -0.824   -2.015    0.349   Cg   502      ZEB   0.184000
 10397   H2   -0.881   -2.937    0.930   H1   502      ZEB   0.000000
 10398   O2   -1.381   -2.276   -0.979   Os   502      ZEB  -0.459000
 10399   C1   -0.889    1.406   -1.216   Cg   503      ZFA   0.399000
 10400   H1   -0.662    2.265   -1.848   H2   503      ZFA   0.000000
 10401   C2   -0.378    0.103   -1.918   Cg   503      ZFA   0.456000
 10402   H2    0.688    0.228   -2.113   H1   503      ZFA   0.000000
 10403   C3   -0.580   -1.113   -0.979   Cg   503      ZFA   0.228000
 10404   H3   -1.643   -1.225   -0.759   H1   503      ZFA   0.000000
 10405   C4    0.178   -0.885    0.352   Cg   503      ZFA   0.263000
 10406   H4   -0.036   -1.714    1.029   H1   503      ZFA   0.000000
 10407   C5   -0.258    0.441    1.034   Cg   503      ZFA   0.187000
 10408   H5   -1.294    0.314    1.352   H1   503      ZFA   0.000000
 10409   C6    0.549    0.830    2.276   Cg   503      ZFA   0.065000
 10410  H63    0.536    0.034    3.020   Hc   503      ZFA   0.000000
 10411  H62    0.136    1.722    2.750   Hc   503      ZFA   0.000000
 10412  H61    1.592    1.042    2.036   Hc   503      ZFA   0.000000
 10413   O5   -0.216    1.592    0.080   Os   503      ZFA  -0.494000
 10414   O4    1.607   -0.874    0.092   Oh   503      ZFA  -0.739000
 10415  H4O    1.815   -1.686   -0.387   Ho   503      ZFA   0.447000
 10416   O3   -0.123   -2.365   -1.586   Os   503      ZFA  -0.461000
 10417   O2   -1.022   -0.115   -3.213   Os   503      ZFA  -0.545000
 10418   C1   -1.517    0.496    1.337   Cg   504      ZFB   0.418000
 10419   H1   -1.217    1.463    1.744   H2   504      ZFB   0.000000
 10420   O5   -1.421    0.558   -0.137   Os   504      ZFB  -0.442000
 10421   C5   -0.061    0.723   -0.701   Cg   504      ZFB   0.106000
 10422   H5    0.372    1.637   -0.290   H1   504      ZFB   0.000000
 10423   C6   -0.191    0.917   -2.214   Cg   504      ZFB   0.092000
 10424  H63    0.787    1.044   -2.681   Hc   504      ZFB   0.000000
 10425  H62   -0.678    0.068   -2.696   Hc   504      ZFB   0.000000
 10426  H61   -0.779    1.805   -2.448   Hc   504      ZFB   0.000000
 10427   C4    0.811   -0.469   -0.252   Cg   504      ZFB   0.229000
 10428   H4    1.830   -0.341   -0.619   H1   504      ZFB   0.000000
 10429   O4    0.260   -1.682   -0.811   Oh   504      ZFB  -0.659000
 10430  H4O    0.250   -1.617   -1.769   Ho   504      ZFB   0.423000
 10431   C3    0.813   -0.558    1.287   Cg   504      ZFB   0.255000
 10432   H3    1.321    0.329    1.673   H1   504      ZFB   0.000000
 10433   O3    1.570   -1.713    1.695   Os   504      ZFB  -0.443000
 10434   C2   -0.606   -0.624    1.887   Cg   504      ZFB   0.346000
 10435   H2   -1.050   -1.601    1.685   H1   504      ZFB   0.000000
 10436   O2   -0.493   -0.435    3.309   Os   504      ZFB  -0.519000
 10437   C1   -0.908   -0.716    1.838   Cg   505      ZGA   0.509000
 10438   H1   -1.817   -1.077    2.319   H2   505      ZGA   0.000000
 10439   C2   -0.192   -1.894    1.116   Cg   505      ZGA   0.246000
 10440   H2   -0.929   -2.390    0.483   H1   505      ZGA   0.000000
 10441   C3    0.958   -1.390    0.219   Cg   505      ZGA   0.286000
 10442   H3    1.767   -1.014    0.849   H1   505      ZGA   0.000000
 10443   C4    0.496   -0.278   -0.751   Cg   505      ZGA   0.254000
 10444   H4   -0.211   -0.695   -1.471   H1   505      ZGA   0.000000
 10445   C5   -0.176    0.884    0.010   Cg   505      ZGA   0.283000
 10446   H5    0.577    1.361    0.641   H1   505      ZGA   0.000000
 10447   C6   -0.764    1.953   -0.940   Cg   505      ZGA   0.276000
 10448  H62   -0.051    2.205   -1.725   H1   505      ZGA   0.000000
 10449  H61   -1.669    1.571   -1.416   H1   505      ZGA   0.000000
 10450   O6   -1.081    3.163   -0.218   Oh   505      ZGA  -0.682000
 10451  H6O   -0.279    3.665   -0.060   Ho   505      ZGA   0.418000
 10452   O5   -1.260    0.345    0.895   Os   505      ZGA  -0.574000
 10453   O4    1.649    0.231   -1.469   Oh   505      ZGA  -0.710000
 10454  H4O    2.120   -0.532   -1.833   Ho   505      ZGA   0.436000
 10455   O3    1.458   -2.508   -0.561   Os   505      ZGA  -0.466000
 10456   O2    0.312   -2.883    2.072   Os   505      ZGA  -0.470000
 10457   C1   -1.510   -0.945    1.114   Cg   506      ZGB   0.384000
 10458   H1   -1.115   -0.833    2.125   H2   506      ZGB   0.000000
 10459   O5   -1.449    0.348    0.427   Os   506      ZGB  -0.471000
 10460   C5   -0.073    0.885    0.196   Cg   506      ZGB   0.225000
 10461   H5    0.410    1.018    1.166   H1   506      ZGB   0.000000
 10462   C6   -0.171    2.258   -0.497   Cg   506      ZGB   0.282000
 10463  H62   -0.640    2.153   -1.476   H1   506      ZGB   0.000000
 10464  H61    0.820    2.690   -0.635   H1   506      ZGB   0.000000
 10465   O6   -0.962    3.154    0.307   Oh   506      ZGB  -0.688000
 10466  H6O   -1.802    2.726    0.498   Ho   506      ZGB   0.424000
 10467   C4    0.730   -0.139   -0.634   Cg   506      ZGB   0.276000
 10468   H4    0.302   -0.209   -1.635   H1   506      ZGB   0.000000
 10469   O4    2.100    0.318   -0.744   Oh   506      ZGB  -0.714000
 10470  H4O    2.610   -0.392   -1.156   Ho   506      ZGB   0.440000
 10471   C3    0.715   -1.537    0.031   Cg   506      ZGB   0.284000
 10472   H3    1.274   -1.494    0.968   H1   506      ZGB   0.000000
 10473   O3    1.371   -2.485   -0.856   Os   506      ZGB  -0.471000
 10474   C2   -0.721   -2.026    0.324   Cg   506      ZGB   0.310000
 10475   H2   -1.235   -2.229   -0.619   H1   506      ZGB   0.000000
 10476   O2   -0.654   -3.261    1.095   Os   506      ZGB  -0.475000
 10477   C1   -0.677    1.518   -1.347   Cg   507      ZHA   0.394000
 10478   H1   -0.336    2.363   -1.945   H2   507      ZHA   0.000000
 10479   C2   -0.317    0.194   -2.077   Cg   507      ZHA   0.248000
 10480   H2   -0.943    0.085   -2.964   H1   507      ZHA   0.000000
 10481   C3   -0.533   -1.019   -1.145   Cg   507      ZHA   0.236000
 10482   H3   -1.602   -1.114   -0.946   H1   507      ZHA   0.000000
 10483   C4    0.214   -0.867    0.199   Cg   507      ZHA   0.187000
 10484   H4    1.291   -0.864    0.023   H1   507      ZHA   0.000000
 10485   C5   -0.207    0.447    0.903   Cg   507      ZHA   0.279000
 10486   H5   -1.259    0.375    1.187   H1   507      ZHA   0.000000
 10487   C6    0.610    0.767    2.156   Cg   507      ZHA   0.023000
 10488  H63    0.503   -0.010    2.912   Hc   507      ZHA   0.000000
 10489  H62    0.287    1.704    2.612   Hc   507      ZHA   0.000000
 10490  H61    1.674    0.862    1.930   Hc   507      ZHA   0.000000
 10491   O5   -0.055    1.606   -0.015   Os   507      ZHA  -0.461000
 10492   O4   -0.119   -2.002    1.049   Oh   507      ZHA  -0.644000
 10493  H4O    0.494   -2.053    1.790   Ho   507      ZHA   0.405000
 10494   O3   -0.097   -2.233   -1.812   Os   507      ZHA  -0.418000
 10495   O2    1.072    0.240   -2.511   Os   507      ZHA  -0.443000
 10496   C1   -2.027   -0.317   -0.628   Cg   508      ZHB   0.381000
 10497   H1   -1.816   -1.065   -1.394   H2   508      ZHB   0.000000
 10498   O5   -1.326   -0.706    0.615   Os   508      ZHB  -0.427000
 10499   C5    0.147   -0.837    0.509   Cg   508      ZHB   0.172000
 10500   H5    0.363   -1.646   -0.192   H1   508      ZHB   0.000000
 10501  C6M    0.662   -1.242    1.892   Cg   508      ZHB   0.039000
 10502  H1M    0.196   -2.168    2.233   Hc   508      ZHB   0.000000
 10503  H2M    0.456   -0.476    2.640   Hc   508      ZHB   0.000000
 10504  H3M    1.740   -1.411    1.883   Hc   508      ZHB   0.000000
 10505   C4    0.752    0.480   -0.032   Cg   508      ZHB   0.388000
 10506   H4    0.725    1.245    0.747   H1   508      ZHB   0.000000
 10507   O4    2.119    0.217   -0.391   Oh   508      ZHB  -0.728000
 10508  H4O    2.598   -0.094    0.381   Ho   508      ZHB   0.432000
 10509   C3    0.014    0.984   -1.290   Cg   508      ZHB   0.182000
 10510   H3    0.215    0.301   -2.118   H1   508      ZHB   0.000000
 10511   O3    0.510    2.285   -1.658   Os   508      ZHB  -0.441000
 10512   C2   -1.513    1.060   -1.094   Cg   508      ZHB   0.243000
 10513   H2   -1.998    1.348   -2.028   H1   508      ZHB   0.000000
 10514   O2   -1.818    2.042   -0.077   Os   508      ZHB  -0.435000
 10515   C1   -0.890    0.955    1.650   Cg   509      ZKA   0.473000
 10516   H1   -1.823    0.980    2.212   H2   509      ZKA   0.000000
 10517   C2   -0.030   -0.223    2.158   Cg   509      ZKA   0.281000
 10518   H2   -0.679   -1.100    2.158   H1   509      ZKA   0.000000
 10519   C3    1.189   -0.575    1.277   Cg   509      ZKA   0.354000
 10520   H3    1.640   -1.506    1.624   H1   509      ZKA   0.000000
 10521   C4    0.788   -0.699   -0.205   Cg   509      ZKA   0.196000
 10522   H4    1.683   -0.786   -0.823   H1   509      ZKA   0.000000
 10523   C5   -0.066    0.493   -0.705   Cg   509      ZKA   0.301000
 10524   H5    0.570    1.380   -0.684   H1   509      ZKA   0.000000
 10525   C6   -0.610    0.344   -2.132   Cg   509      ZKA   0.287000
 10526  H62    0.200    0.111   -2.823   H1   509      ZKA   0.000000
 10527  H61   -1.351   -0.456   -2.185   H1   509      ZKA   0.000000
 10528   O6   -1.219    1.580   -2.529   Oh   509      ZKA  -0.691000
 10529  H6O   -0.566    2.283   -2.496   Ho   509      ZKA   0.422000
 10530   O5   -1.208    0.722    0.223   Os   509      ZKA  -0.540000
 10531   O4    0.034   -1.918   -0.345   Oh   509      ZKA  -0.712000
 10532  H4O   -0.213   -2.037   -1.265   Ho   509      ZKA   0.420000
 10533   O3    2.182    0.464    1.365   Os   509      ZKA  -0.502000
 10534   O2    0.370   -0.013    3.524   Os   509      ZKA  -0.483000
 10535   C1   -1.442   -0.812    1.238   Cg   510      ZKB   0.449000
 10536   H1   -1.048   -0.662    2.244   H2   510      ZKB   0.000000
 10537   O5   -1.350    0.440    0.484   Os   510      ZKB  -0.514000
 10538   C5    0.045    0.898    0.182   Cg   510      ZKB   0.303000
 10539   H5    0.547    1.093    1.131   H1   510      ZKB   0.000000
 10540   C6   -0.009    2.226   -0.600   Cg   510      ZKB   0.259000
 10541  H62   -0.576    2.104   -1.523   H1   510      ZKB   0.000000
 10542  H61    0.999    2.550   -0.858   H1   510      ZKB   0.000000
 10543   O6   -0.634    3.248    0.201   Oh   510      ZKB  -0.670000
 10544  H6O   -1.514    2.945    0.444   Ho   510      ZKB   0.416000
 10545   C4    0.844   -0.210   -0.558   Cg   510      ZKB   0.217000
 10546   H4    1.886    0.101   -0.639   H1   510      ZKB   0.000000
 10547   O4    0.335   -0.406   -1.907   Oh   510      ZKB  -0.700000
 10548  H4O    0.977   -0.887   -2.441   Ho   510      ZKB   0.425000
 10549   C3    0.767   -1.553    0.202   Cg   510      ZKB   0.253000
 10550   H3    1.244   -2.333   -0.392   H1   510      ZKB   0.000000
 10551   O3    1.516   -1.412    1.438   Os   510      ZKB  -0.462000
 10552   C2   -0.693   -1.965    0.505   Cg   510      ZKB   0.308000
 10553   H2   -1.199   -2.168   -0.440   H1   510      ZKB   0.000000
 10554   O2   -0.696   -3.198    1.290   Os   510      ZKB  -0.478000
 10555   C1   -0.951    0.921    1.622   Cg   511      ZLA   0.465000
 10556   H1   -1.902    0.933    2.155   H2   511      ZLA   0.000000
 10557   C2   -0.087   -0.244    2.159   Cg   511      ZLA   0.339000
 10558   H2   -0.705   -1.144    2.172   H1   511      ZLA   0.000000
 10559   C3    1.157   -0.503    1.289   Cg   511      ZLA   0.253000
 10560   H3    1.835    0.348    1.369   H1   511      ZLA   0.000000
 10561   C4    0.785   -0.696   -0.197   Cg   511      ZLA   0.204000
 10562   H4    1.693   -0.797   -0.795   H1   511      ZLA   0.000000
 10563   C5   -0.041    0.505   -0.706   Cg   511      ZLA   0.216000
 10564   H5    0.592    1.392   -0.637   H1   511      ZLA   0.000000
 10565   C6   -0.525    0.388   -2.158   Cg   511      ZLA   0.308000
 10566  H62    0.314    0.175   -2.820   H1   511      ZLA   0.000000
 10567  H61   -1.260   -0.412   -2.260   H1   511      ZLA   0.000000
 10568   O6   -1.121    1.633   -2.549   Oh   511      ZLA  -0.684000
 10569  H6O   -0.473    2.336   -2.472   Ho   511      ZLA   0.418000
 10570   O5   -1.221    0.702    0.182   Os   511      ZLA  -0.527000
 10571   O4   -0.009   -1.893   -0.351   Oh   511      ZLA  -0.673000
 10572  H4O   -0.241   -2.007   -1.276   Ho   511      ZLA   0.436000
 10573   O3    1.852   -1.674    1.757   Os   511      ZLA  -0.462000
 10574   O2    0.308    0.038    3.515   Os   511      ZLA  -0.487000
 10575   C1   -1.410   -0.895    1.197   Cg   512      ZLB   0.374000
 10576   H1   -1.017   -0.786    2.209   H2   512      ZLB   0.000000
 10577   O5   -1.333    0.406    0.519   Os   512      ZLB  -0.402000
 10578   C5    0.043    0.915    0.232   Cg   512      ZLB   0.140000
 10579   H5    0.559    1.051    1.185   H1   512      ZLB   0.000000
 10580   C6   -0.043    2.287   -0.461   Cg   512      ZLB   0.319000
 10581  H62   -0.635    2.224   -1.375   H1   512      ZLB   0.000000
 10582  H61    0.954    2.645   -0.718   H1   512      ZLB   0.000000
 10583   O6   -0.659    3.226    0.435   Oh   512      ZLB  -0.693000
 10584  H6O   -1.528    2.886    0.666   Ho   512      ZLB   0.419000
 10585   C4    0.836   -0.129   -0.585   Cg   512      ZLB   0.203000
 10586   H4    1.868    0.206   -0.695   H1   512      ZLB   0.000000
 10587   O4    0.253   -0.258   -1.906   Oh   512      ZLB  -0.664000
 10588  H4O    0.700   -0.995   -2.344   Ho   512      ZLB   0.437000
 10589   C3    0.818   -1.501    0.127   Cg   512      ZLB   0.259000
 10590   H3    1.354   -1.399    1.073   H1   512      ZLB   0.000000
 10591   O3    1.537   -2.470   -0.687   Os   512      ZLB  -0.455000
 10592   C2   -0.620   -1.990    0.422   Cg   512      ZLB   0.357000
 10593   H2   -1.131   -2.216   -0.516   H1   512      ZLB   0.000000
 10594   O2   -0.545   -3.208    1.222   Os   512      ZLB  -0.488000
 10595   C1   -1.053   -0.685    1.785   Cg   513      ZMA   0.433000
 10596   H1   -2.018   -1.002    2.180   H2   513      ZMA   0.000000
 10597   C2   -0.348   -1.892    1.103   Cg   513      ZMA   0.245000
 10598   H2   -0.043   -2.611    1.865   H1   513      ZMA   0.000000
 10599   C3    0.899   -1.421    0.322   Cg   513      ZMA   0.252000
 10600   H3    1.626   -1.026    1.034   H1   513      ZMA   0.000000
 10601   C4    0.547   -0.307   -0.696   Cg   513      ZMA   0.326000
 10602   H4   -0.124   -0.702   -1.460   H1   513      ZMA   0.000000
 10603   C5   -0.115    0.893    0.018   Cg   513      ZMA   0.276000
 10604   H5    0.625    1.346    0.682   H1   513      ZMA   0.000000
 10605   C6   -0.602    1.967   -0.979   Cg   513      ZMA   0.266000
 10606  H62    0.172    2.185   -1.715   H1   513      ZMA   0.000000
 10607  H61   -1.483    1.610   -1.513   H1   513      ZMA   0.000000
 10608   O6   -0.927    3.197   -0.295   Oh   513      ZMA  -0.688000
 10609  H6O   -0.122    3.635   -0.010   Ho   513      ZMA   0.422000
 10610   O5   -1.268    0.432    0.854   Os   513      ZMA  -0.507000
 10611   O4    1.771    0.144   -1.335   Oh   513      ZMA  -0.733000
 10612  H4O    2.218   -0.638   -1.684   Ho   513      ZMA   0.438000
 10613   O3    1.517   -2.562   -0.350   Os   513      ZMA  -0.459000
 10614   O2   -1.273   -2.564    0.196   Os   513      ZMA  -0.465000
 10615   C1   -1.508   -0.912    1.197   Cg   514      ZMB   0.314000
 10616   H1   -1.026   -0.869    2.175   H2   514      ZMB   0.000000
 10617   O5   -1.399    0.409    0.560   Os   514      ZMB  -0.393000
 10618   C5   -0.010    0.867    0.237   Cg   514      ZMB   0.206000
 10619   H5    0.513    1.034    1.181   H1   514      ZMB   0.000000
 10620   C6   -0.090    2.203   -0.523   Cg   514      ZMB   0.273000
 10621  H62   -0.612    2.067   -1.472   H1   514      ZMB   0.000000
 10622  H61    0.910    2.584   -0.734   H1   514      ZMB   0.000000
 10623   O6   -0.799    3.174    0.267   Oh   514      ZMB  -0.680000
 10624  H6O   -1.662    2.813    0.489   Ho   514      ZMB   0.419000
 10625   C4    0.753   -0.213   -0.571   Cg   514      ZMB   0.349000
 10626   H4    0.344   -0.277   -1.580   H1   514      ZMB   0.000000
 10627   O4    2.147    0.184   -0.660   Oh   514      ZMB  -0.746000
 10628  H4O    2.549   -0.283   -1.401   Ho   514      ZMB   0.443000
 10629   C3    0.648   -1.592    0.134   Cg   514      ZMB   0.263000
 10630   H3    1.097   -1.512    1.126   H1   514      ZMB   0.000000
 10631   O3    1.384   -2.628   -0.579   Os   514      ZMB  -0.456000
 10632   C2   -0.833   -2.000    0.316   Cg   514      ZMB   0.241000
 10633   H2   -0.897   -2.970    0.812   H1   514      ZMB   0.000000
 10634   O2   -1.510   -2.079   -0.975   Os   514      ZMB  -0.427000
 10635   C1   -0.974    0.954    1.631   Cg   515      ZNA   0.478000
 10636   H1   -1.920    1.048    2.164   H2   515      ZNA   0.000000
 10637   C2   -0.237   -0.306    2.136   Cg   515      ZNA   0.228000
 10638   H2   -0.954   -1.128    2.084   H1   515      ZNA   0.000000
 10639   C3    0.984   -0.727    1.296   Cg   515      ZNA   0.330000
 10640   H3    1.367   -1.686    1.649   H1   515      ZNA   0.000000
 10641   C4    0.550   -0.843   -0.180   Cg   515      ZNA   0.167000
 10642   H4   -0.146   -1.679   -0.263   H1   515      ZNA   0.000000
 10643   C5   -0.143    0.426   -0.724   Cg   515      ZNA   0.404000
 10644   H5    0.575    1.249   -0.733   H1   515      ZNA   0.000000
 10645   C6   -0.727    0.256   -2.133   Cg   515      ZNA   0.280000
 10646  H62    0.046   -0.063   -2.832   H1   515      ZNA   0.000000
 10647  H61   -1.521   -0.493   -2.133   H1   515      ZNA   0.000000
 10648   O6   -1.257    1.513   -2.575   Oh   515      ZNA  -0.663000
 10649  H6O   -0.556    2.168   -2.591   Ho   515      ZNA   0.396000
 10650   O5   -1.264    0.783    0.189   Os   515      ZNA  -0.611000
 10651   O4    1.700   -1.150   -0.989   Oh   515      ZNA  -0.733000
 10652  H4O    2.328   -0.426   -0.940   Ho   515      ZNA   0.444000
 10653   O3    2.026    0.267    1.423   Os   515      ZNA  -0.467000
 10654   O2    0.123   -0.163    3.522   Os   515      ZNA  -0.447000
 10655   C1   -1.520   -0.883    1.123   Cg   516      ZNB   0.422000
 10656   H1   -1.119   -0.761    2.131   H2   516      ZNB   0.000000
 10657   O5   -1.427    0.396    0.404   Os   516      ZNB  -0.507000
 10658   C5   -0.039    0.863    0.079   Cg   516      ZNB   0.198000
 10659   H5    0.499    1.025    1.014   H1   516      ZNB   0.000000
 10660   C6   -0.111    2.205   -0.675   Cg   516      ZNB   0.313000
 10661  H62   -0.640    2.082   -1.620   H1   516      ZNB   0.000000
 10662  H61    0.890    2.583   -0.885   H1   516      ZNB   0.000000
 10663   O6   -0.811    3.165    0.135   Oh   516      ZNB  -0.689000
 10664  H6O   -1.613    2.745    0.459   Ho   516      ZNB   0.418000
 10665   C4    0.674   -0.242   -0.735   Cg   516      ZNB   0.286000
 10666   H4    0.145   -0.377   -1.680   H1   516      ZNB   0.000000
 10667   O4    2.034    0.145   -1.041   Oh   516      ZNB  -0.707000
 10668  H4O    2.588   -0.083   -0.283   Ho   516      ZNB   0.430000
 10669   C3    0.677   -1.587    0.027   Cg   516      ZNB   0.234000
 10670   H3    1.151   -2.357   -0.586   H1   516      ZNB   0.000000
 10671   O3    1.435   -1.450    1.265   Os   516      ZNB  -0.420000
 10672   C2   -0.772   -2.011    0.351   Cg   516      ZNB   0.301000
 10673   H2   -1.292   -2.200   -0.591   H1   516      ZNB   0.000000
 10674   O2   -0.749   -3.258    1.107   Os   516      ZNB  -0.473000
 10675   C1   -0.746   -0.393    1.856   Cg   517      ZOA   0.305000
 10676   H1   -1.667   -0.733    2.329   H2   517      ZOA   0.000000
 10677   C2   -0.094   -1.586    1.085   Cg   517      ZOA   0.413000
 10678   H2   -0.857   -2.078    0.481   H1   517      ZOA   0.000000
 10679   C3    1.048   -1.091    0.164   Cg   517      ZOA   0.251000
 10680   H3    1.820   -0.640    0.790   H1   517      ZOA   0.000000
 10681   C4    0.521   -0.001   -0.807   Cg   517      ZOA   0.267000
 10682   H4    1.330    0.320   -1.465   H1   517      ZOA   0.000000
 10683   C5    0.001    1.205   -0.002   Cg   517      ZOA   0.054000
 10684   H5    0.824    1.617    0.586   H1   517      ZOA   0.000000
 10685   C6   -0.424    2.289   -1.049    C   517      ZOA   0.896000
 10686  O6A    0.364    3.247   -1.214   O2   517      ZOA  -0.822000
 10687  O6B   -1.468    2.070   -1.711   O2   517      ZOA  -0.822000
 10688   O5   -1.066    0.732    0.963   Os   517      ZOA  -0.424000
 10689   O4   -0.580   -0.494   -1.619   Oh   517      ZOA  -0.704000
 10690  H4O   -1.107    0.290   -1.884   Ho   517      ZOA   0.429000
 10691   O3    1.680   -2.195   -0.552   Os   517      ZOA  -0.503000
 10692   O2    0.421   -2.560    2.049   Os   517      ZOA  -0.534000
 10693   C1   -1.521   -0.573    1.263   Cg   518      ZOB   0.301000
 10694   H1   -1.111   -0.476    2.270   H2   518      ZOB   0.000000
 10695   O5   -1.434    0.724    0.595   Os   518      ZOB  -0.414000
 10696   C5   -0.051    1.206    0.246   Cg   518      ZOB   0.049000
 10697   H5    0.501    1.270    1.187   H1   518      ZOB   0.000000
 10698   C6    0.106    2.632   -0.401    C   518      ZOB   0.838000
 10699  O6B    1.268    2.961   -0.747   O2   518      ZOB  -0.794000
 10700  O6A   -0.894    3.389   -0.441   O2   518      ZOB  -0.794000
 10701   C4    0.652    0.147   -0.620   Cg   518      ZOB   0.260000
 10702   H4    1.684    0.448   -0.809   H1   518      ZOB   0.000000
 10703   O4   -0.032    0.025   -1.892   Oh   518      ZOB  -0.661000
 10704  H4O    0.367   -0.708   -2.367   Ho   518      ZOB   0.402000
 10705   C3    0.664   -1.227    0.092   Cg   518      ZOB   0.259000
 10706   H3    1.249   -1.128    1.009   H1   518      ZOB   0.000000
 10707   O3    1.353   -2.195   -0.767   Os   518      ZOB  -0.498000
 10708   C2   -0.768   -1.689    0.476   Cg   518      ZOB   0.383000
 10709   H2   -1.325   -1.938   -0.428   H1   518      ZOB   0.000000
 10710   O2   -0.707   -2.869    1.334   Os   518      ZOB  -0.525000
 10711   C1   -0.786    1.438   -1.345   Cg   519      ZQA   0.465000
 10712   H1   -0.550    2.284   -1.990   H1   519      ZQA   0.000000
 10713   C2   -0.399    0.110   -2.058   Cg   519      ZQA   0.281000
 10714   H2    0.642    0.194   -2.374   H1   519      ZQA   0.000000
 10715   C3   -0.519   -1.091   -1.086   Cg   519      ZQA   0.312000
 10716   H3   -1.573   -1.272   -0.865   H1   519      ZQA   0.000000
 10717   C4    0.252   -0.851    0.236   Cg   519      ZQA   0.208000
 10718   H4    1.324   -0.837    0.028   H1   519      ZQA   0.000000
 10719   C5   -0.150    0.485    0.903   Cg   519      ZQA   0.234000
 10720   H5   -1.185    0.414    1.243   H1   519      ZQA   0.000000
 10721   C6    0.723    0.873    2.099   Cg   519      ZQA   0.060000
 10722  H63    1.773    0.968    1.819   Hc   519      ZQA   0.000000
 10723  H62    0.660    0.132    2.897   Hc   519      ZQA   0.000000
 10724  H61    0.409    1.828    2.524   Hc   519      ZQA   0.000000
 10725   O5   -0.057    1.595   -0.081   Os   519      ZQA  -0.559000
 10726   O4   -0.029   -1.942    1.159   Oh   519      ZQA  -0.664000
 10727  H4O    0.641   -1.978    1.849   Ho   519      ZQA   0.403000
 10728   O3    0.038   -2.284   -1.697   Os   519      ZQA  -0.467000
 10729   O2   -1.215   -0.067   -3.261   Os   519      ZQA  -0.467000
 10730   C1   -1.526   -0.681    1.300   Cg   520      ZQB   0.391000
 10731   H1   -1.058   -0.505    2.270   H1   520      ZQB   0.000000
 10732   O5   -1.499    0.550    0.513   Os   520      ZQB  -0.535000
 10733   C5   -0.145    1.053    0.164   Cg   520      ZQB   0.271000
 10734   H5    0.391    1.268    1.090   H1   520      ZQB   0.000000
 10735   C6   -0.334    2.364   -0.603   Cg   520      ZQB   0.048000
 10736  H63   -0.873    2.209   -1.540   Hc   520      ZQB   0.000000
 10737  H62    0.624    2.826   -0.848   Hc   520      ZQB   0.000000
 10738  H61   -0.899    3.088   -0.015   Hc   520      ZQB   0.000000
 10739   C4    0.618   -0.037   -0.627   Cg   520      ZQB   0.250000
 10740   H4    0.153   -0.163   -1.607   H1   520      ZQB   0.000000
 10741   O4    1.991    0.393   -0.814   Oh   520      ZQB  -0.713000
 10742  H4O    2.471   -0.330   -1.239   Ho   520      ZQB   0.421000
 10743   C3    0.607   -1.392    0.123   Cg   520      ZQB   0.300000
 10744   H3    1.222   -1.305    1.022   H1   520      ZQB   0.000000
 10745   O3    1.191   -2.408   -0.737   Os   520      ZQB  -0.463000
 10746   C2   -0.817   -1.832    0.533   Cg   520      ZQB   0.323000
 10747   H2   -1.393   -2.078   -0.361   H1   520      ZQB   0.000000
 10748   O2   -0.726   -3.022    1.375   Os   520      ZQB  -0.487000
 10749   C1   -1.467    0.930    0.816   Cg   521      ZRA   0.488000
 10750   H1   -2.502    0.881    1.156   H2   521      ZRA   0.000000
 10751   C2   -0.706   -0.308    1.346   Cg   521      ZRA   0.253000
 10752   H2   -1.311   -1.178    1.087   H1   521      ZRA   0.000000
 10753   C3    0.689   -0.534    0.729   Cg   521      ZRA   0.345000
 10754   H3    1.097   -1.489    1.064   H1   521      ZRA   0.000000
 10755   C4    0.547   -0.526   -0.806   Cg   521      ZRA   0.122000
 10756   H4   -0.040   -1.397   -1.102   H1   521      ZRA   0.000000
 10757   C5   -0.152    0.732   -1.347   Cg   521      ZRA   0.377000
 10758  H5E   -0.317    0.641   -2.420   H1   521      ZRA   0.000000
 10759  H5A    0.458    1.618   -1.169   H1   521      ZRA   0.000000
 10760   O5   -1.459    0.895   -0.667   Os   521      ZRA  -0.561000
 10761   O4    1.840   -0.639   -1.422   Oh   521      ZRA  -0.663000
 10762  H4O    2.371    0.127   -1.193   Ho   521      ZRA   0.419000
 10763   O3    1.580    0.526    1.143   Os   521      ZRA  -0.488000
 10764   O2   -0.628   -0.279    2.783   Os   521      ZRA  -0.486000
 10765   C1   -1.711   -0.250    0.947   Cg   522      ZRB   0.481000
 10766   H1   -1.382   -0.175    1.984   H2   522      ZRB   0.000000
 10767   O5   -1.598    1.061    0.292   Os   522      ZRB  -0.576000
 10768   C5   -0.209    1.550    0.078   Cg   522      ZRB   0.335000
 10769  H5E   -0.245    2.479   -0.490   H1   522      ZRB   0.000000
 10770  H5A    0.248    1.764    1.045   H1   522      ZRB   0.000000
 10771   C4    0.612    0.487   -0.694   Cg   522      ZRB   0.236000
 10772   H4    0.176    0.369   -1.687   H1   522      ZRB   0.000000
 10773   O4    1.985    0.930   -0.864   Oh   522      ZRB  -0.695000
 10774  H4O    2.429    0.396   -1.531   Ho   522      ZRB   0.411000
 10775   C3    0.575   -0.877    0.037   Cg   522      ZRB   0.203000
 10776   H3    1.141   -1.615   -0.534   H1   522      ZRB   0.000000
 10777   O3    1.192   -0.721    1.350   Os   522      ZRB  -0.462000
 10778   C2   -0.902   -1.332    0.161   Cg   522      ZRB   0.385000
 10779   H2   -1.319   -1.403   -0.846   H1   522      ZRB   0.000000
 10780   O2   -0.992   -2.663    0.753   Os   522      ZRB  -0.512000
 10781   C1   -0.945    0.920    1.645   Cg   523      ZTA   0.456000
 10782   H1   -1.908    0.933    2.158   H2   523      ZTA   0.000000
 10783   C2   -0.083   -0.228    2.208   Cg   523      ZTA   0.245000
 10784   H2    0.270    0.024    3.209   H1   523      ZTA   0.000000
 10785   C3    1.122   -0.548    1.296   Cg   523      ZTA   0.124000
 10786   H3    1.807    0.299    1.372   H1   523      ZTA   0.000000
 10787   C4    0.780   -0.710   -0.200   Cg   523      ZTA   0.434000
 10788   H4    1.701   -0.804   -0.778   H1   523      ZTA   0.000000
 10789   C5   -0.014    0.520   -0.690   Cg   523      ZTA   0.157000
 10790   H5    0.640    1.390   -0.601   H1   523      ZTA   0.000000
 10791   C6   -0.493    0.442   -2.146   Cg   523      ZTA   0.304000
 10792  H62    0.343    0.216   -2.807   H1   523      ZTA   0.000000
 10793  H61   -1.250   -0.335   -2.266   H1   523      ZTA   0.000000
 10794   O6   -1.052    1.709   -2.519   Oh   523      ZTA  -0.669000
 10795  H6O   -0.384    2.393   -2.427   Ho   523      ZTA   0.401000
 10796   O5   -1.193    0.734    0.193   Os   523      ZTA  -0.480000
 10797   O4   -0.014   -1.897   -0.405   Oh   523      ZTA  -0.731000
 10798  H4O   -0.219   -1.987   -1.339   Ho   523      ZTA   0.417000
 10799   O3    1.839   -1.697    1.781   Os   523      ZTA  -0.439000
 10800   O2   -0.948   -1.374    2.314   Os   523      ZTA  -0.413000
 10801   C1   -1.556    0.093    1.369   Cg   524      ZTB   0.306000
 10802   H1   -1.311    1.043    1.847   H2   524      ZTB   0.000000
 10803   O5   -1.384    0.252   -0.093   Os   524      ZTB  -0.354000
 10804   C5   -0.024    0.675   -0.520   Cg   524      ZTB   0.031000
 10805   H5    0.214    1.613   -0.015   H1   524      ZTB   0.000000
 10806   C6   -0.042    0.950   -2.030   Cg   524      ZTB   0.349000
 10807  H62   -0.391    0.076   -2.581   H1   524      ZTB   0.000000
 10808  H61    0.959    1.203   -2.380   H1   524      ZTB   0.000000
 10809   O6   -0.918    2.055   -2.290   Oh   524      ZTB  -0.666000
 10810  H6O   -1.801    1.842   -1.979   Ho   524      ZTB   0.406000
 10811   C4    1.011   -0.376   -0.056   Cg   524      ZTB   0.314000
 10812   H4    2.018   -0.003   -0.246   H1   524      ZTB   0.000000
 10813   O4    0.821   -1.588   -0.817   Oh   524      ZTB  -0.626000
 10814  H4O    0.933   -1.399   -1.751   Ho   524      ZTB   0.413000
 10815   C3    0.841   -0.663    1.455   Cg   524      ZTB   0.174000
 10816   H3    1.125    0.248    1.982   H1   524      ZTB   0.000000
 10817   O3    1.756   -1.687    1.885   Os   524      ZTB  -0.447000
 10818   C2   -0.601   -1.001    1.894   Cg   524      ZTB   0.340000
 10819   H2   -0.656   -1.054    2.982   H1   524      ZTB   0.000000
 10820   O2   -0.993   -2.277    1.343   Os   524      ZTB  -0.434000
 10821   C1   -1.999    0.259    0.158   Cg   525      ZUA   0.363000
 10822   H1   -1.974    1.149   -0.470   H2   525      ZUA   0.000000
 10823   C2   -1.529   -0.995   -0.640   Cg   525      ZUA   0.259000
 10824   H2   -1.806   -1.891   -0.080   H1   525      ZUA   0.000000
 10825   C3    0.015   -0.978   -0.826   Cg   525      ZUA   0.417000
 10826   H3    0.272   -0.217   -1.566   H1   525      ZUA   0.000000
 10827   C4    0.791   -0.677    0.483   Cg   525      ZUA   0.223000
 10828   H4    0.602   -1.485    1.192   H1   525      ZUA   0.000000
 10829   C5    0.297    0.642    1.107   Cg   525      ZUA   0.232000
 10830   H5    0.766    0.738    2.087   H1   525      ZUA   0.000000
 10831   C6    0.796    1.900    0.271    C   525      ZUA   0.697000
 10832  O6A   -0.060    2.708   -0.156   O2   525      ZUA  -0.757000
 10833  O6B    2.027    1.981    0.039   O2   525      ZUA  -0.757000
 10834   O5   -1.178    0.481    1.350   Os   525      ZUA  -0.515000
 10835   O4    2.231   -0.628    0.237   Oh   525      ZUA  -0.711000
 10836  H4O    2.471    0.312    0.076   Ho   525      ZUA   0.397000
 10837   O3    0.480   -2.265   -1.316   Os   525      ZUA  -0.548000
 10838   O2   -2.201   -1.033   -1.946   Os   525      ZUA  -0.494000
 10839   C1    0.255    0.338    1.956   Cg   526      ZUB   0.278000
 10840   H1    0.796    0.635    2.854   H2   526      ZUB   0.000000
 10841   O5    0.293    1.457    0.990   Os   526      ZUB  -0.430000
 10842   C5   -0.262    1.212   -0.395   Cg   526      ZUB   0.194000
 10843   H5    0.025    2.073   -1.001   H1   526      ZUB   0.000000
 10844   C6   -1.834    1.116   -0.532    C   526      ZUB   0.750000
 10845  O6B   -2.303    0.813   -1.656   O2   526      ZUB  -0.783000
 10846  O6A   -2.518    1.318    0.497   O2   526      ZUB  -0.783000
 10847   C4    0.440   -0.027   -0.998   Cg   526      ZUB   0.308000
 10848   H4    1.494    0.225   -1.133   H1   526      ZUB   0.000000
 10849   O4   -0.095   -0.363   -2.309   Oh   526      ZUB  -0.745000
 10850  H4O   -1.029   -0.045   -2.327   Ho   526      ZUB   0.422000
 10851   C3    0.360   -1.257   -0.054   Cg   526      ZUB   0.286000
 10852   H3   -0.678   -1.572    0.060   H1   526      ZUB   0.000000
 10853   O3    1.124   -2.354   -0.640   Os   526      ZUB  -0.528000
 10854   C2    0.963   -0.895    1.322   Cg   526      ZUB   0.289000
 10855   H2    2.007   -0.621    1.166   H1   526      ZUB   0.000000
 10856   O2    0.962   -2.054    2.202   Os   526      ZUB  -0.452000
 10857   C1   -0.732    1.547   -0.939   Cg   527      ZXA   0.482000
 10858   H1   -0.581    2.329   -1.682   H2   527      ZXA   0.000000
 10859   C2   -0.285    0.179   -1.519   Cg   527      ZXA   0.197000
 10860   H2    0.728    0.298   -1.907   H1   527      ZXA   0.000000
 10861   C3   -0.265   -0.912   -0.427   Cg   527      ZXA   0.359000
 10862   H3   -1.289   -1.138   -0.123   H1   527      ZXA   0.000000
 10863   C4    0.565   -0.487    0.807   Cg   527      ZXA   0.247000
 10864   H4    1.616   -0.399    0.529   H1   527      ZXA   0.000000
 10865   C5    0.076    0.867    1.350   Cg   527      ZXA   0.335000
 10866  H5E    0.748    1.219    2.134   H1   527      ZXA   0.000000
 10867  H5A   -0.919    0.762    1.784   H1   527      ZXA   0.000000
 10868   O5    0.023    1.888    0.267   Os   527      ZXA  -0.588000
 10869   O4    0.441   -1.480    1.861   Oh   527      ZXA  -0.720000
 10870  H4O    0.691   -2.338    1.492   Ho   527      ZXA   0.420000
 10871   O3    0.327   -2.108   -0.995   Os   527      ZXA  -0.485000
 10872   O2   -1.144   -0.225   -2.633   Os   527      ZXA  -0.441000
 10873   C1   -1.612   -0.134    1.141   Cg   528      ZXB   0.248000
 10874   H1   -1.147    0.008    2.117   H2   528      ZXB   0.000000
 10875   O5   -1.546    1.126    0.395   Os   528      ZXB  -0.447000
 10876   C5   -0.180    1.578    0.041   Cg   528      ZXB   0.303000
 10877  H5E   -0.248    2.503   -0.533   H1   528      ZXB   0.000000
 10878  H5A    0.376    1.786    0.957   H1   528      ZXB   0.000000
 10879   C4    0.532    0.491   -0.787   Cg   528      ZXB   0.286000
 10880   H4    0.033    0.395   -1.753   H1   528      ZXB   0.000000
 10881   O4    1.901    0.905   -1.008   Oh   528      ZXB  -0.723000
 10882  H4O    2.360    0.169   -1.433   Ho   528      ZXB   0.430000
 10883   C3    0.524   -0.874   -0.060   Cg   528      ZXB   0.228000
 10884   H3    1.149   -0.805    0.833   H1   528      ZXB   0.000000
 10885   O3    1.091   -1.885   -0.944   Os   528      ZXB  -0.449000
 10886   C2   -0.909   -1.281    0.358   Cg   528      ZXB   0.425000
 10887   H2   -1.494   -1.524   -0.531   H1   528      ZXB   0.000000
 10888   O2   -0.830   -2.457    1.206   Os   528      ZXB  -0.495000
 10889   C1   -0.956   -0.432    1.826   Cg   529      ZZA   0.398000
 10890   H1   -1.859   -0.763    2.340   H2   529      ZZA   0.000000
 10891   C2   -0.279   -1.643    1.133   Cg   529      ZZA   0.326000
 10892   H2   -1.040   -2.146    0.535   H1   529      ZZA   0.000000
 10893   C3    0.875   -1.216    0.196   Cg   529      ZZA   0.300000
 10894   H3    1.716   -0.880    0.806   H1   529      ZZA   0.000000
 10895   C4    0.472   -0.076   -0.782   Cg   529      ZZA   0.193000
 10896   H4   -0.195   -0.477   -1.547   H1   529      ZZA   0.000000
 10897   C5   -0.242    1.106   -0.079   Cg   529      ZZA   0.187000
 10898   H5    0.500    1.582    0.566   H1   529      ZZA   0.000000
 10899   C6   -0.642    2.253   -1.116    C   529      ZZA   0.798000
 10900  O6A    0.165    2.505   -2.048   O2   529      ZZA  -0.787000
 10901  O6B   -1.706    2.885   -0.924   O2   529      ZZA  -0.787000
 10902   O5   -1.321    0.588    0.849   Os   529      ZZA  -0.544000
 10903   O4    1.658    0.455   -1.429   Oh   529      ZZA  -0.682000
 10904  H4O    1.363    1.256   -1.916   Ho   529      ZZA   0.422000
 10905   O3    1.287   -2.401   -0.548   Os   529      ZZA  -0.498000
 10906   O2    0.203   -2.595    2.140   Os   529      ZZA  -0.520000
 10907   C1   -1.665   -0.634    1.152   Cg   530      ZZB   0.251000
 10908   H1   -1.252   -0.498    2.152   H2   530      ZZB   0.000000
 10909   O5   -1.540    0.619    0.413   Os   530      ZZB  -0.413000
 10910   C5   -0.142    1.094    0.140   Cg   530      ZZB   0.075000
 10911   H5    0.348    1.212    1.109   H1   530      ZZB   0.000000
 10912   C6    0.007    2.498   -0.579    C   530      ZZB   0.893000
 10913  O6B    1.136    2.787   -1.053   O2   530      ZZB  -0.818000
 10914  O6A   -0.989    3.254   -0.616   O2   530      ZZB  -0.818000
 10915   C4    0.601   -0.010   -0.638   Cg   530      ZZB   0.267000
 10916   H4    0.171   -0.072   -1.640   H1   530      ZZB   0.000000
 10917   O4    1.997    0.360   -0.761   Oh   530      ZZB  -0.733000
 10918  H4O    1.992    1.321   -0.986   Ho   530      ZZB   0.429000
 10919   C3    0.516   -1.402    0.042   Cg   530      ZZB   0.266000
 10920   H3    1.114   -1.384    0.956   H1   530      ZZB   0.000000
 10921   O3    1.103   -2.373   -0.876   Os   530      ZZB  -0.492000
 10922   C2   -0.940   -1.791    0.407   Cg   530      ZZB   0.411000
 10923   H2   -1.489   -2.027   -0.507   H1   530      ZZB   0.000000
 10924   O2   -0.967   -2.955    1.285   Os   530      ZZB  -0.512000
@<TRIPOS>BOND
     1      1      2 1
     2      1      3 1
     3      1     12 1
     4      3      4 1
     5      3      5 1
     6      3     17 1
     7      5      6 1
     8      5      7 1
     9      5     15 1
    10      7      8 1
    11      7      9 1
    12      7     13 1
    13      9     10 1
    14      9     11 1
    15      9     12 1
    16     13     14 1
    17     15     16 1
    18     17     18 1
    19     19     20 1
    20     19     21 1
    21     19     33 1
    22     21     22 1
    23     22     23 1
    24     22     24 1
    25     22     25 1
    26     25     26 1
    27     25     27 1
    28     25     29 1
    29     27     28 1
    30     29     30 1
    31     29     31 1
    32     29     33 1
    33     31     32 1
    34     33     34 1
    35     33     35 1
    36     35     36 1
    37     37     38 1
    38     37     43 1
    39     37     52 1
    40     38     39 1
    41     38     40 1
    42     38     41 1
    43     41     42 1
    44     43     44 1
    45     43     45 1
    46     43     57 1
    47     45     46 1
    48     45     47 1
    49     45     55 1
    50     47     48 1
    51     47     49 1
    52     47     53 1
    53     49     50 1
    54     49     51 1
    55     49     52 1
    56     53     54 1
    57     55     56 1
    58     57     58 1
    59     59     60 1
    60     59     72 1
    61     59     76 1
    62     60     61 1
    63     61     62 1
    64     61     63 1
    65     61     64 1
    66     64     65 1
    67     64     66 1
    68     64     68 1
    69     66     67 1
    70     68     69 1
    71     68     70 1
    72     68     72 1
    73     70     71 1
    74     72     73 1
    75     72     74 1
    76     74     75 1
    77     76     77 1
    78     76     78 1
    79     76     79 1
    80     79     80 1
    81     81     82 1
    82     81     87 1
    83     81     96 1
    84     82     83 1
    85     82     84 1
    86     82     85 1
    87     85     86 1
    88     87     88 1
    89     87     89 1
    90     87    101 1
    91     89     90 1
    92     89     91 1
    93     89     99 1
    94     91     92 1
    95     91     93 1
    96     91     97 1
    97     93     94 1
    98     93     95 1
    99     93     96 1
   100     97     98 1
   101     99    100 1
   102    101    102 1
   103    103    104 1
   104    103    116 1
   105    103    120 1
   106    104    105 1
   107    105    106 1
   108    105    107 1
   109    105    108 1
   110    108    109 1
   111    108    110 1
   112    108    112 1
   113    110    111 1
   114    112    113 1
   115    112    114 1
   116    112    116 1
   117    114    115 1
   118    116    117 1
   119    116    118 1
   120    118    119 1
   121    120    121 1
   122    120    122 1
   123    120    123 1
   124    123    124 1
   125    125    126 1
   126    125    127 1
   127    125    136 1
   128    127    128 1
   129    127    129 1
   130    127    141 1
   131    129    130 1
   132    129    131 1
   133    129    139 1
   134    131    132 1
   135    131    133 1
   136    131    137 1
   137    133    134 1
   138    133    135 1
   139    133    136 1
   140    137    138 1
   141    139    140 1
   142    141    142 1
   143    143    144 1
   144    143    145 1
   145    143    157 1
   146    145    146 1
   147    146    147 1
   148    146    148 1
   149    146    149 1
   150    149    150 1
   151    149    151 1
   152    149    153 1
   153    151    152 1
   154    153    154 1
   155    153    155 1
   156    153    157 1
   157    155    156 1
   158    157    158 1
   159    157    159 1
   160    159    160 1
   161    161    162 1
   162    161    163 1
   163    161    176 1
   164    163    164 1
   165    163    165 1
   166    163    181 1
   167    165    166 1
   168    165    167 1
   169    165    179 1
   170    167    168 1
   171    167    169 1
   172    167    177 1
   173    169    170 1
   174    169    171 1
   175    169    176 1
   176    171    172 1
   177    171    173 1
   178    171    174 1
   179    174    175 1
   180    177    178 1
   181    179    180 1
   182    181    182 1
   183    183    184 1
   184    183    185 1
   185    183    201 1
   186    185    186 1
   187    186    187 1
   188    186    188 1
   189    186    193 1
   190    188    189 1
   191    188    190 1
   192    188    191 1
   193    191    192 1
   194    193    194 1
   195    193    195 1
   196    193    197 1
   197    195    196 1
   198    197    198 1
   199    197    199 1
   200    197    201 1
   201    199    200 1
   202    201    202 1
   203    201    203 1
   204    203    204 1
   205    205    206 1
   206    205    207 1
   207    205    219 1
   208    207    208 1
   209    207    209 1
   210    207    224 1
   211    209    210 1
   212    209    211 1
   213    209    222 1
   214    211    212 1
   215    211    213 1
   216    211    220 1
   217    213    214 1
   218    213    215 1
   219    213    219 1
   220    215    216 1
   221    215    217 1
   222    215    218 1
   223    220    221 1
   224    222    223 1
   225    224    225 1
   226    226    227 1
   227    226    228 1
   228    226    243 1
   229    228    229 1
   230    229    230 1
   231    229    231 1
   232    229    235 1
   233    231    232 1
   234    231    233 1
   235    231    234 1
   236    235    236 1
   237    235    237 1
   238    235    239 1
   239    237    238 1
   240    239    240 1
   241    239    241 1
   242    239    243 1
   243    241    242 1
   244    243    244 1
   245    243    245 1
   246    245    246 1
   247    247    248 1
   248    247    249 1
   249    247    262 1
   250    249    250 1
   251    249    251 1
   252    249    267 1
   253    251    252 1
   254    251    253 1
   255    251    265 1
   256    253    254 1
   257    253    255 1
   258    253    263 1
   259    255    256 1
   260    255    257 1
   261    255    262 1
   262    257    258 1
   263    257    259 1
   264    257    260 1
   265    260    261 1
   266    263    264 1
   267    265    266 1
   268    267    268 1
   269    269    270 1
   270    269    271 1
   271    269    287 1
   272    271    272 1
   273    272    273 1
   274    272    274 1
   275    272    279 1
   276    274    275 1
   277    274    276 1
   278    274    277 1
   279    277    278 1
   280    279    280 1
   281    279    281 1
   282    279    283 1
   283    281    282 1
   284    283    284 1
   285    283    285 1
   286    283    287 1
   287    285    286 1
   288    287    288 1
   289    287    289 1
   290    289    290 1
   291    291    292 1
   292    291    293 1
   293    291    305 1
   294    293    294 1
   295    293    295 1
   296    293    310 1
   297    295    296 1
   298    295    297 1
   299    295    308 1
   300    297    298 1
   301    297    299 1
   302    297    306 1
   303    299    300 1
   304    299    301 1
   305    299    305 1
   306    301    302 1
   307    301    303 1
   308    301    304 1
   309    306    307 1
   310    308    309 1
   311    310    311 1
   312    312    313 1
   313    312    314 1
   314    312    329 1
   315    314    315 1
   316    315    316 1
   317    315    317 1
   318    315    321 1
   319    317    318 1
   320    317    319 1
   321    317    320 1
   322    321    322 1
   323    321    323 1
   324    321    325 1
   325    323    324 1
   326    325    326 1
   327    325    327 1
   328    325    329 1
   329    327    328 1
   330    329    330 1
   331    329    331 1
   332    331    332 1
   333    333    334 1
   334    333    339 1
   335    333    348 1
   336    334    335 1
   337    334    336 1
   338    334    337 1
   339    337    338 1
   340    339    340 1
   341    339    341 1
   342    339    353 1
   343    341    342 1
   344    341    343 1
   345    341    351 1
   346    343    344 1
   347    343    345 1
   348    343    349 1
   349    345    346 1
   350    345    347 1
   351    345    348 1
   352    349    350 1
   353    351    352 1
   354    353    354 1
   355    355    356 1
   356    355    368 1
   357    355    372 1
   358    356    357 1
   359    357    358 1
   360    357    359 1
   361    357    360 1
   362    360    361 1
   363    360    362 1
   364    360    364 1
   365    362    363 1
   366    364    365 1
   367    364    366 1
   368    364    368 1
   369    366    367 1
   370    368    369 1
   371    368    370 1
   372    370    371 1
   373    372    373 1
   374    372    374 1
   375    372    375 1
   376    375    376 1
   377    377    378 1
   378    377    379 1
   379    377    392 1
   380    379    380 1
   381    379    381 1
   382    379    397 1
   383    381    382 1
   384    381    383 1
   385    381    395 1
   386    383    384 1
   387    383    385 1
   388    383    393 1
   389    385    386 1
   390    385    387 1
   391    385    392 1
   392    387    388 1
   393    387    389 1
   394    387    390 1
   395    390    391 1
   396    393    394 1
   397    395    396 1
   398    397    398 1
   399    399    400 1
   400    399    401 1
   401    399    417 1
   402    401    402 1
   403    402    403 1
   404    402    404 1
   405    402    409 1
   406    404    405 1
   407    404    406 1
   408    404    407 1
   409    407    408 1
   410    409    410 1
   411    409    411 1
   412    409    413 1
   413    411    412 1
   414    413    414 1
   415    413    415 1
   416    413    417 1
   417    415    416 1
   418    417    418 1
   419    417    419 1
   420    419    420 1
   421    421    422 1
   422    421    423 1
   423    421    436 1
   424    423    424 1
   425    423    425 1
   426    423    441 1
   427    425    426 1
   428    425    427 1
   429    425    439 1
   430    427    428 1
   431    427    429 1
   432    427    437 1
   433    429    430 1
   434    429    431 1
   435    429    436 1
   436    431    432 1
   437    431    433 1
   438    431    434 1
   439    434    435 1
   440    437    438 1
   441    439    440 1
   442    441    442 1
   443    443    444 1
   444    443    445 1
   445    443    461 1
   446    445    446 1
   447    446    447 1
   448    446    448 1
   449    446    453 1
   450    448    449 1
   451    448    450 1
   452    448    451 1
   453    451    452 1
   454    453    454 1
   455    453    455 1
   456    453    457 1
   457    455    456 1
   458    457    458 1
   459    457    459 1
   460    457    461 1
   461    459    460 1
   462    461    462 1
   463    461    463 1
   464    463    464 1
   465    465    466 1
   466    465    467 1
   467    465    480 1
   468    467    468 1
   469    467    469 1
   470    467    485 1
   471    469    470 1
   472    469    471 1
   473    469    483 1
   474    471    472 1
   475    471    473 1
   476    471    481 1
   477    473    474 1
   478    473    475 1
   479    473    480 1
   480    475    476 1
   481    475    477 1
   482    475    478 1
   483    478    479 1
   484    481    482 1
   485    483    484 1
   486    485    486 1
   487    487    488 1
   488    487    489 1
   489    487    505 1
   490    489    490 1
   491    490    491 1
   492    490    492 1
   493    490    497 1
   494    492    493 1
   495    492    494 1
   496    492    495 1
   497    495    496 1
   498    497    498 1
   499    497    499 1
   500    497    501 1
   501    499    500 1
   502    501    502 1
   503    501    503 1
   504    501    505 1
   505    503    504 1
   506    505    506 1
   507    505    507 1
   508    507    508 1
   509    509    510 1
   510    509    511 1
   511    509    524 1
   512    511    512 1
   513    511    513 1
   514    511    529 1
   515    513    514 1
   516    513    515 1
   517    513    527 1
   518    515    516 1
   519    515    517 1
   520    515    525 1
   521    517    518 1
   522    517    519 1
   523    517    524 1
   524    519    520 1
   525    519    521 1
   526    519    522 1
   527    522    523 1
   528    525    526 1
   529    527    528 1
   530    529    530 1
   531    531    532 1
   532    531    533 1
   533    531    549 1
   534    533    534 1
   535    534    535 1
   536    534    536 1
   537    534    541 1
   538    536    537 1
   539    536    538 1
   540    536    539 1
   541    539    540 1
   542    541    542 1
   543    541    543 1
   544    541    545 1
   545    543    544 1
   546    545    546 1
   547    545    547 1
   548    545    549 1
   549    547    548 1
   550    549    550 1
   551    549    551 1
   552    551    552 1
   553    553    554 1
   554    553    555 1
   555    553    566 1
   556    555    556 1
   557    555    557 1
   558    555    571 1
   559    557    558 1
   560    557    559 1
   561    557    569 1
   562    559    560 1
   563    559    561 1
   564    559    567 1
   565    561    562 1
   566    561    563 1
   567    561    566 1
   568    563    564 1
   569    563    565 1
   570    567    568 1
   571    569    570 1
   572    571    572 1
   573    573    574 1
   574    573    575 1
   575    573    589 1
   576    575    576 1
   577    576    577 1
   578    576    578 1
   579    576    581 1
   580    578    579 1
   581    578    580 1
   582    581    582 1
   583    581    583 1
   584    581    585 1
   585    583    584 1
   586    585    586 1
   587    585    587 1
   588    585    589 1
   589    587    588 1
   590    589    590 1
   591    589    591 1
   592    591    592 1
   593    593    594 1
   594    593    599 1
   595    593    608 1
   596    594    595 1
   597    594    596 1
   598    594    597 1
   599    597    598 1
   600    599    600 1
   601    599    601 1
   602    599    613 1
   603    601    602 1
   604    601    603 1
   605    601    611 1
   606    603    604 1
   607    603    605 1
   608    603    609 1
   609    605    606 1
   610    605    607 1
   611    605    608 1
   612    609    610 1
   613    611    612 1
   614    613    614 1
   615    615    616 1
   616    615    628 1
   617    615    632 1
   618    616    617 1
   619    617    618 1
   620    617    619 1
   621    617    620 1
   622    620    621 1
   623    620    622 1
   624    620    624 1
   625    622    623 1
   626    624    625 1
   627    624    626 1
   628    624    628 1
   629    626    627 1
   630    628    629 1
   631    628    630 1
   632    630    631 1
   633    632    633 1
   634    632    634 1
   635    632    635 1
   636    635    636 1
   637    637    638 1
   638    637    639 1
   639    637    651 1
   640    639    640 1
   641    639    641 1
   642    639    656 1
   643    641    642 1
   644    641    643 1
   645    641    654 1
   646    643    644 1
   647    643    645 1
   648    643    652 1
   649    645    646 1
   650    645    647 1
   651    645    651 1
   652    647    648 1
   653    647    649 1
   654    647    650 1
   655    652    653 1
   656    654    655 1
   657    656    657 1
   658    658    659 1
   659    658    660 1
   660    658    675 1
   661    660    661 1
   662    661    662 1
   663    661    663 1
   664    661    667 1
   665    663    664 1
   666    663    665 1
   667    663    666 1
   668    667    668 1
   669    667    669 1
   670    667    671 1
   671    669    670 1
   672    671    672 1
   673    671    673 1
   674    671    675 1
   675    673    674 1
   676    675    676 1
   677    675    677 1
   678    677    678 1
   679    679    680 1
   680    679    681 1
   681    679    690 1
   682    681    682 1
   683    681    683 1
   684    681    695 1
   685    683    684 1
   686    683    685 1
   687    683    693 1
   688    685    686 1
   689    685    687 1
   690    685    691 1
   691    687    688 1
   692    687    689 1
   693    687    690 1
   694    691    692 1
   695    693    694 1
   696    695    696 1
   697    697    698 1
   698    697    699 1
   699    697    711 1
   700    699    700 1
   701    700    701 1
   702    700    702 1
   703    700    703 1
   704    703    704 1
   705    703    705 1
   706    703    707 1
   707    705    706 1
   708    707    708 1
   709    707    709 1
   710    707    711 1
   711    709    710 1
   712    711    712 1
   713    711    713 1
   714    713    714 1
   715    715    716 1
   716    715    719 1
   717    715    741 1
   718    716    717 1
   719    716    718 1
   720    719    720 1
   721    719    721 1
   722    719    722 1
   723    722    723 1
   724    722    724 1
   725    722    750 1
   726    724    725 1
   727    724    726 1
   728    724    742 1
   729    726    727 1
   730    726    728 1
   731    726    741 1
   732    728    729 1
   733    728    730 1
   734    728    739 1
   735    730    731 1
   736    730    732 1
   737    730    737 1
   738    732    733 1
   739    732    734 1
   740    732    735 1
   741    735    736 1
   742    737    738 1
   743    739    740 1
   744    742    743 1
   745    742    744 1
   746    744    745 1
   747    744    749 1
   748    745    746 1
   749    745    747 1
   750    745    748 1
   751    750    751 1
   752    752    753 1
   753    752    783 1
   754    752    786 1
   755    753    754 1
   756    754    755 1
   757    754    756 1
   758    754    769 1
   759    756    757 1
   760    756    758 1
   761    756    760 1
   762    758    759 1
   763    760    761 1
   764    760    762 1
   765    760    764 1
   766    762    763 1
   767    764    765 1
   768    764    766 1
   769    764    767 1
   770    767    768 1
   771    769    770 1
   772    769    771 1
   773    769    779 1
   774    771    772 1
   775    771    773 1
   776    773    774 1
   777    773    775 1
   778    775    776 1
   779    775    777 1
   780    775    778 1
   781    779    780 1
   782    779    781 1
   783    779    783 1
   784    781    782 1
   785    783    784 1
   786    783    785 1
   787    786    787 1
   788    786    788 1
   789    789    790 1
   790    789    791 1
   791    789    804 1
   792    791    792 1
   793    791    793 1
   794    791    809 1
   795    793    794 1
   796    793    795 1
   797    793    807 1
   798    795    796 1
   799    795    797 1
   800    795    805 1
   801    797    798 1
   802    797    799 1
   803    797    804 1
   804    799    800 1
   805    799    801 1
   806    799    802 1
   807    802    803 1
   808    805    806 1
   809    807    808 1
   810    809    810 1
   811    811    812 1
   812    811    813 1
   813    811    829 1
   814    813    814 1
   815    814    815 1
   816    814    816 1
   817    814    821 1
   818    816    817 1
   819    816    818 1
   820    816    819 1
   821    819    820 1
   822    821    822 1
   823    821    823 1
   824    821    825 1
   825    823    824 1
   826    825    826 1
   827    825    827 1
   828    825    829 1
   829    827    828 1
   830    829    830 1
   831    829    831 1
   832    831    832 1
   833    833    834 1
   834    833    835 1
   835    833    846 1
   836    835    836 1
   837    835    837 1
   838    835    851 1
   839    837    838 1
   840    837    839 1
   841    837    849 1
   842    839    840 1
   843    839    841 1
   844    839    847 1
   845    841    842 1
   846    841    843 1
   847    841    846 1
   848    843    844 1
   849    843    845 1
   850    847    848 1
   851    849    850 1
   852    851    852 1
   853    853    854 1
   854    853    855 1
   855    853    869 1
   856    855    856 1
   857    856    857 1
   858    856    858 1
   859    856    861 1
   860    858    859 1
   861    858    860 1
   862    861    862 1
   863    861    863 1
   864    861    865 1
   865    863    864 1
   866    865    866 1
   867    865    867 1
   868    865    869 1
   869    867    868 1
   870    869    870 1
   871    869    871 1
   872    871    872 1
   873    873    874 1
   874    873    875 1
   875    873    888 1
   876    875    876 1
   877    875    877 1
   878    875    893 1
   879    877    878 1
   880    877    879 1
   881    877    891 1
   882    879    880 1
   883    879    881 1
   884    879    889 1
   885    881    882 1
   886    881    883 1
   887    881    888 1
   888    883    884 1
   889    883    885 1
   890    883    886 1
   891    886    887 1
   892    889    890 1
   893    891    892 1
   894    893    894 1
   895    893    895 1
   896    895    896 1
   897    895    900 1
   898    896    897 1
   899    896    898 1
   900    896    899 1
   901    901    902 1
   902    901    903 1
   903    901    919 1
   904    903    904 1
   905    904    905 1
   906    904    906 1
   907    904    911 1
   908    906    907 1
   909    906    908 1
   910    906    909 1
   911    909    910 1
   912    911    912 1
   913    911    913 1
   914    911    915 1
   915    913    914 1
   916    915    916 1
   917    915    917 1
   918    915    919 1
   919    917    918 1
   920    919    920 1
   921    919    921 1
   922    921    922 1
   923    921    923 1
   924    923    924 1
   925    923    925 1
   926    925    926 1
   927    925    927 1
   928    925    928 1
   929    929    930 1
   930    929    931 1
   931    929    944 1
   932    931    932 1
   933    931    933 1
   934    931    949 1
   935    933    934 1
   936    933    935 1
   937    933    947 1
   938    935    936 1
   939    935    937 1
   940    935    945 1
   941    937    938 1
   942    937    939 1
   943    937    944 1
   944    939    940 1
   945    939    941 1
   946    939    942 1
   947    942    943 1
   948    945    946 1
   949    947    948 1
   950    949    950 1
   951    949    951 1
   952    951    952 1
   953    951    956 1
   954    952    953 1
   955    952    954 1
   956    952    955 1
   957    957    958 1
   958    957    959 1
   959    957    975 1
   960    959    960 1
   961    960    961 1
   962    960    962 1
   963    960    967 1
   964    962    963 1
   965    962    964 1
   966    962    965 1
   967    965    966 1
   968    967    968 1
   969    967    969 1
   970    967    971 1
   971    969    970 1
   972    971    972 1
   973    971    973 1
   974    971    975 1
   975    973    974 1
   976    975    976 1
   977    975    977 1
   978    977    978 1
   979    977    979 1
   980    979    980 1
   981    979    981 1
   982    981    982 1
   983    981    983 1
   984    981    984 1
   985    985    986 1
   986    985    987 1
   987    985    996 1
   988    987    988 1
   989    987    989 1
   990    987   1001 1
   991    989    990 1
   992    989    991 1
   993    989    999 1
   994    991    992 1
   995    991    993 1
   996    991    997 1
   997    993    994 1
   998    993    995 1
   999    993    996 1
  1000    997    998 1
  1001    999   1000 1
  1002   1001   1002 1
  1003   1003   1004 1
  1004   1003   1005 1
  1005   1003   1017 1
  1006   1005   1006 1
  1007   1006   1007 1
  1008   1006   1008 1
  1009   1006   1009 1
  1010   1009   1010 1
  1011   1009   1011 1
  1012   1009   1013 1
  1013   1011   1012 1
  1014   1013   1014 1
  1015   1013   1015 1
  1016   1013   1017 1
  1017   1015   1016 1
  1018   1017   1018 1
  1019   1017   1019 1
  1020   1019   1020 1
  1021   1021   1022 1
  1022   1021   1023 1
  1023   1021   1036 1
  1024   1023   1024 1
  1025   1023   1025 1
  1026   1023   1041 1
  1027   1025   1026 1
  1028   1025   1027 1
  1029   1025   1039 1
  1030   1027   1028 1
  1031   1027   1029 1
  1032   1027   1037 1
  1033   1029   1030 1
  1034   1029   1031 1
  1035   1029   1036 1
  1036   1031   1032 1
  1037   1031   1033 1
  1038   1031   1034 1
  1039   1034   1035 1
  1040   1037   1038 1
  1041   1039   1040 1
  1042   1041   1042 1
  1043   1041   1043 1
  1044   1043   1044 1
  1045   1043   1048 1
  1046   1044   1045 1
  1047   1044   1046 1
  1048   1044   1047 1
  1049   1049   1050 1
  1050   1049   1051 1
  1051   1049   1067 1
  1052   1051   1052 1
  1053   1052   1053 1
  1054   1052   1054 1
  1055   1052   1059 1
  1056   1054   1055 1
  1057   1054   1056 1
  1058   1054   1057 1
  1059   1057   1058 1
  1060   1059   1060 1
  1061   1059   1061 1
  1062   1059   1063 1
  1063   1061   1062 1
  1064   1063   1064 1
  1065   1063   1065 1
  1066   1063   1067 1
  1067   1065   1066 1
  1068   1067   1068 1
  1069   1067   1069 1
  1070   1069   1070 1
  1071   1069   1071 1
  1072   1071   1072 1
  1073   1071   1073 1
  1074   1073   1074 1
  1075   1073   1075 1
  1076   1073   1076 1
  1077   1077   1078 1
  1078   1077   1079 1
  1079   1077   1090 1
  1080   1079   1080 1
  1081   1079   1081 1
  1082   1079   1095 1
  1083   1081   1082 1
  1084   1081   1083 1
  1085   1081   1093 1
  1086   1083   1084 1
  1087   1083   1085 1
  1088   1083   1091 1
  1089   1085   1086 1
  1090   1085   1087 1
  1091   1085   1090 1
  1092   1087   1088 1
  1093   1087   1089 1
  1094   1091   1092 1
  1095   1093   1094 1
  1096   1095   1096 1
  1097   1097   1098 1
  1098   1097   1099 1
  1099   1097   1113 1
  1100   1099   1100 1
  1101   1100   1101 1
  1102   1100   1102 1
  1103   1100   1105 1
  1104   1102   1103 1
  1105   1102   1104 1
  1106   1105   1106 1
  1107   1105   1107 1
  1108   1105   1109 1
  1109   1107   1108 1
  1110   1109   1110 1
  1111   1109   1111 1
  1112   1109   1113 1
  1113   1111   1112 1
  1114   1113   1114 1
  1115   1113   1115 1
  1116   1115   1116 1
  1117   1117   1118 1
  1118   1118   1119 1
  1119   1118   1120 1
  1120   1118   1129 1
  1121   1120   1121 1
  1122   1120   1122 1
  1123   1120   1134 1
  1124   1122   1123 1
  1125   1122   1124 1
  1126   1122   1132 1
  1127   1124   1125 1
  1128   1124   1126 1
  1129   1124   1130 1
  1130   1126   1127 1
  1131   1126   1128 1
  1132   1126   1129 1
  1133   1130   1131 1
  1134   1132   1133 1
  1135   1134   1135 1
  1136   1136   1137 1
  1137   1137   1138 1
  1138   1137   1139 1
  1139   1137   1151 1
  1140   1139   1140 1
  1141   1140   1141 1
  1142   1140   1142 1
  1143   1140   1143 1
  1144   1143   1144 1
  1145   1143   1145 1
  1146   1143   1147 1
  1147   1145   1146 1
  1148   1147   1148 1
  1149   1147   1149 1
  1150   1147   1151 1
  1151   1149   1150 1
  1152   1151   1152 1
  1153   1151   1153 1
  1154   1153   1154 1
  1155   1155   1156 1
  1156   1155   1165 1
  1157   1155   1172 1
  1158   1156   1157 1
  1159   1156   1158 1
  1160   1156   1170 1
  1161   1158   1159 1
  1162   1158   1160 1
  1163   1158   1168 1
  1164   1160   1161 1
  1165   1160   1162 1
  1166   1160   1166 1
  1167   1162   1163 1
  1168   1162   1164 1
  1169   1162   1165 1
  1170   1166   1167 1
  1171   1168   1169 1
  1172   1170   1171 1
  1173   1172   1173 1
  1174   1172   1174 1
  1175   1172   1175 1
  1176   1176   1177 1
  1177   1176   1189 1
  1178   1176   1193 1
  1179   1177   1178 1
  1180   1178   1179 1
  1181   1178   1180 1
  1182   1178   1181 1
  1183   1181   1182 1
  1184   1181   1183 1
  1185   1181   1185 1
  1186   1183   1184 1
  1187   1185   1186 1
  1188   1185   1187 1
  1189   1185   1189 1
  1190   1187   1188 1
  1191   1189   1190 1
  1192   1189   1191 1
  1193   1191   1192 1
  1194   1193   1194 1
  1195   1193   1195 1
  1196   1193   1196 1
  1197   1197   1198 1
  1198   1197   1207 1
  1199   1197   1214 1
  1200   1198   1199 1
  1201   1198   1200 1
  1202   1198   1212 1
  1203   1200   1201 1
  1204   1200   1202 1
  1205   1200   1210 1
  1206   1202   1203 1
  1207   1202   1204 1
  1208   1202   1208 1
  1209   1204   1205 1
  1210   1204   1206 1
  1211   1204   1207 1
  1212   1208   1209 1
  1213   1210   1211 1
  1214   1212   1213 1
  1215   1214   1215 1
  1216   1214   1216 1
  1217   1214   1217 1
  1218   1218   1219 1
  1219   1218   1231 1
  1220   1218   1235 1
  1221   1219   1220 1
  1222   1220   1221 1
  1223   1220   1222 1
  1224   1220   1223 1
  1225   1223   1224 1
  1226   1223   1225 1
  1227   1223   1227 1
  1228   1225   1226 1
  1229   1227   1228 1
  1230   1227   1229 1
  1231   1227   1231 1
  1232   1229   1230 1
  1233   1231   1232 1
  1234   1231   1233 1
  1235   1233   1234 1
  1236   1235   1236 1
  1237   1235   1237 1
  1238   1235   1238 1
  1239   1239   1240 1
  1240   1240   1241 1
  1241   1240   1242 1
  1242   1240   1251 1
  1243   1242   1243 1
  1244   1242   1244 1
  1245   1242   1256 1
  1246   1244   1245 1
  1247   1244   1246 1
  1248   1244   1254 1
  1249   1246   1247 1
  1250   1246   1248 1
  1251   1246   1252 1
  1252   1248   1249 1
  1253   1248   1250 1
  1254   1248   1251 1
  1255   1252   1253 1
  1256   1254   1255 1
  1257   1256   1257 1
  1258   1258   1259 1
  1259   1259   1260 1
  1260   1259   1261 1
  1261   1259   1273 1
  1262   1261   1262 1
  1263   1262   1263 1
  1264   1262   1264 1
  1265   1262   1265 1
  1266   1265   1266 1
  1267   1265   1267 1
  1268   1265   1269 1
  1269   1267   1268 1
  1270   1269   1270 1
  1271   1269   1271 1
  1272   1269   1273 1
  1273   1271   1272 1
  1274   1273   1274 1
  1275   1273   1275 1
  1276   1275   1276 1
  1277   1277   1278 1
  1278   1278   1279 1
  1279   1278   1280 1
  1280   1278   1293 1
  1281   1280   1281 1
  1282   1280   1282 1
  1283   1280   1298 1
  1284   1282   1283 1
  1285   1282   1284 1
  1286   1282   1296 1
  1287   1284   1285 1
  1288   1284   1286 1
  1289   1284   1294 1
  1290   1286   1287 1
  1291   1286   1288 1
  1292   1286   1293 1
  1293   1288   1289 1
  1294   1288   1290 1
  1295   1288   1291 1
  1296   1291   1292 1
  1297   1294   1295 1
  1298   1296   1297 1
  1299   1298   1299 1
  1300   1300   1301 1
  1301   1301   1302 1
  1302   1301   1303 1
  1303   1301   1319 1
  1304   1303   1304 1
  1305   1304   1305 1
  1306   1304   1306 1
  1307   1304   1311 1
  1308   1306   1307 1
  1309   1306   1308 1
  1310   1306   1309 1
  1311   1309   1310 1
  1312   1311   1312 1
  1313   1311   1313 1
  1314   1311   1315 1
  1315   1313   1314 1
  1316   1315   1316 1
  1317   1315   1317 1
  1318   1315   1319 1
  1319   1317   1318 1
  1320   1319   1320 1
  1321   1319   1321 1
  1322   1321   1322 1
  1323   1323   1324 1
  1324   1324   1325 1
  1325   1324   1326 1
  1326   1324   1338 1
  1327   1326   1327 1
  1328   1326   1328 1
  1329   1326   1343 1
  1330   1328   1329 1
  1331   1328   1330 1
  1332   1328   1341 1
  1333   1330   1331 1
  1334   1330   1332 1
  1335   1330   1339 1
  1336   1332   1333 1
  1337   1332   1334 1
  1338   1332   1338 1
  1339   1334   1335 1
  1340   1334   1336 1
  1341   1334   1337 1
  1342   1339   1340 1
  1343   1341   1342 1
  1344   1343   1344 1
  1345   1345   1346 1
  1346   1346   1347 1
  1347   1346   1348 1
  1348   1346   1363 1
  1349   1348   1349 1
  1350   1349   1350 1
  1351   1349   1351 1
  1352   1349   1355 1
  1353   1351   1352 1
  1354   1351   1353 1
  1355   1351   1354 1
  1356   1355   1356 1
  1357   1355   1357 1
  1358   1355   1359 1
  1359   1357   1358 1
  1360   1359   1360 1
  1361   1359   1361 1
  1362   1359   1363 1
  1363   1361   1362 1
  1364   1363   1364 1
  1365   1363   1365 1
  1366   1365   1366 1
  1367   1367   1368 1
  1368   1368   1369 1
  1369   1368   1370 1
  1370   1368   1383 1
  1371   1370   1371 1
  1372   1370   1372 1
  1373   1370   1388 1
  1374   1372   1373 1
  1375   1372   1374 1
  1376   1372   1386 1
  1377   1374   1375 1
  1378   1374   1376 1
  1379   1374   1384 1
  1380   1376   1377 1
  1381   1376   1378 1
  1382   1376   1383 1
  1383   1378   1379 1
  1384   1378   1380 1
  1385   1378   1381 1
  1386   1381   1382 1
  1387   1384   1385 1
  1388   1386   1387 1
  1389   1388   1389 1
  1390   1390   1391 1
  1391   1391   1392 1
  1392   1391   1393 1
  1393   1391   1409 1
  1394   1393   1394 1
  1395   1394   1395 1
  1396   1394   1396 1
  1397   1394   1401 1
  1398   1396   1397 1
  1399   1396   1398 1
  1400   1396   1399 1
  1401   1399   1400 1
  1402   1401   1402 1
  1403   1401   1403 1
  1404   1401   1405 1
  1405   1403   1404 1
  1406   1405   1406 1
  1407   1405   1407 1
  1408   1405   1409 1
  1409   1407   1408 1
  1410   1409   1410 1
  1411   1409   1411 1
  1412   1411   1412 1
  1413   1413   1414 1
  1414   1414   1415 1
  1415   1414   1416 1
  1416   1414   1428 1
  1417   1416   1417 1
  1418   1416   1418 1
  1419   1416   1433 1
  1420   1418   1419 1
  1421   1418   1420 1
  1422   1418   1431 1
  1423   1420   1421 1
  1424   1420   1422 1
  1425   1420   1429 1
  1426   1422   1423 1
  1427   1422   1424 1
  1428   1422   1428 1
  1429   1424   1425 1
  1430   1424   1426 1
  1431   1424   1427 1
  1432   1429   1430 1
  1433   1431   1432 1
  1434   1433   1434 1
  1435   1435   1436 1
  1436   1436   1437 1
  1437   1436   1438 1
  1438   1436   1453 1
  1439   1438   1439 1
  1440   1439   1440 1
  1441   1439   1441 1
  1442   1439   1445 1
  1443   1441   1442 1
  1444   1441   1443 1
  1445   1441   1444 1
  1446   1445   1446 1
  1447   1445   1447 1
  1448   1445   1449 1
  1449   1447   1448 1
  1450   1449   1450 1
  1451   1449   1451 1
  1452   1449   1453 1
  1453   1451   1452 1
  1454   1453   1454 1
  1455   1453   1455 1
  1456   1455   1456 1
  1457   1457   1458 1
  1458   1457   1467 1
  1459   1457   1474 1
  1460   1458   1459 1
  1461   1458   1460 1
  1462   1458   1472 1
  1463   1460   1461 1
  1464   1460   1462 1
  1465   1460   1470 1
  1466   1462   1463 1
  1467   1462   1464 1
  1468   1462   1468 1
  1469   1464   1465 1
  1470   1464   1466 1
  1471   1464   1467 1
  1472   1468   1469 1
  1473   1470   1471 1
  1474   1472   1473 1
  1475   1474   1475 1
  1476   1474   1476 1
  1477   1474   1477 1
  1478   1478   1479 1
  1479   1478   1491 1
  1480   1478   1495 1
  1481   1479   1480 1
  1482   1480   1481 1
  1483   1480   1482 1
  1484   1480   1483 1
  1485   1483   1484 1
  1486   1483   1485 1
  1487   1483   1487 1
  1488   1485   1486 1
  1489   1487   1488 1
  1490   1487   1489 1
  1491   1487   1491 1
  1492   1489   1490 1
  1493   1491   1492 1
  1494   1491   1493 1
  1495   1493   1494 1
  1496   1495   1496 1
  1497   1495   1497 1
  1498   1495   1498 1
  1499   1499   1500 1
  1500   1500   1501 1
  1501   1500   1502 1
  1502   1500   1515 1
  1503   1502   1503 1
  1504   1502   1504 1
  1505   1502   1520 1
  1506   1504   1505 1
  1507   1504   1506 1
  1508   1504   1518 1
  1509   1506   1507 1
  1510   1506   1508 1
  1511   1506   1516 1
  1512   1508   1509 1
  1513   1508   1510 1
  1514   1508   1515 1
  1515   1510   1511 1
  1516   1510   1512 1
  1517   1510   1513 1
  1518   1513   1514 1
  1519   1516   1517 1
  1520   1518   1519 1
  1521   1520   1521 1
  1522   1522   1523 1
  1523   1523   1524 1
  1524   1523   1525 1
  1525   1523   1541 1
  1526   1525   1526 1
  1527   1526   1527 1
  1528   1526   1528 1
  1529   1526   1533 1
  1530   1528   1529 1
  1531   1528   1530 1
  1532   1528   1531 1
  1533   1531   1532 1
  1534   1533   1534 1
  1535   1533   1535 1
  1536   1533   1537 1
  1537   1535   1536 1
  1538   1537   1538 1
  1539   1537   1539 1
  1540   1537   1541 1
  1541   1539   1540 1
  1542   1541   1542 1
  1543   1541   1543 1
  1544   1543   1544 1
  1545   1545   1546 1
  1546   1546   1547 1
  1547   1546   1548 1
  1548   1546   1561 1
  1549   1548   1549 1
  1550   1548   1550 1
  1551   1548   1566 1
  1552   1550   1551 1
  1553   1550   1552 1
  1554   1550   1564 1
  1555   1552   1553 1
  1556   1552   1554 1
  1557   1552   1562 1
  1558   1554   1555 1
  1559   1554   1556 1
  1560   1554   1561 1
  1561   1556   1557 1
  1562   1556   1558 1
  1563   1556   1559 1
  1564   1559   1560 1
  1565   1562   1563 1
  1566   1564   1565 1
  1567   1566   1567 1
  1568   1568   1569 1
  1569   1569   1570 1
  1570   1569   1571 1
  1571   1569   1587 1
  1572   1571   1572 1
  1573   1572   1573 1
  1574   1572   1574 1
  1575   1572   1579 1
  1576   1574   1575 1
  1577   1574   1576 1
  1578   1574   1577 1
  1579   1577   1578 1
  1580   1579   1580 1
  1581   1579   1581 1
  1582   1579   1583 1
  1583   1581   1582 1
  1584   1583   1584 1
  1585   1583   1585 1
  1586   1583   1587 1
  1587   1585   1586 1
  1588   1587   1588 1
  1589   1587   1589 1
  1590   1589   1590 1
  1591   1591   1592 1
  1592   1592   1593 1
  1593   1592   1594 1
  1594   1592   1607 1
  1595   1594   1595 1
  1596   1594   1596 1
  1597   1594   1612 1
  1598   1596   1597 1
  1599   1596   1598 1
  1600   1596   1610 1
  1601   1598   1599 1
  1602   1598   1600 1
  1603   1598   1608 1
  1604   1600   1601 1
  1605   1600   1602 1
  1606   1600   1607 1
  1607   1602   1603 1
  1608   1602   1604 1
  1609   1602   1605 1
  1610   1605   1606 1
  1611   1608   1609 1
  1612   1610   1611 1
  1613   1612   1613 1
  1614   1614   1615 1
  1615   1615   1616 1
  1616   1615   1617 1
  1617   1615   1633 1
  1618   1617   1618 1
  1619   1618   1619 1
  1620   1618   1620 1
  1621   1618   1625 1
  1622   1620   1621 1
  1623   1620   1622 1
  1624   1620   1623 1
  1625   1623   1624 1
  1626   1625   1626 1
  1627   1625   1627 1
  1628   1625   1629 1
  1629   1627   1628 1
  1630   1629   1630 1
  1631   1629   1631 1
  1632   1629   1633 1
  1633   1631   1632 1
  1634   1633   1634 1
  1635   1633   1635 1
  1636   1635   1636 1
  1637   1637   1638 1
  1638   1638   1639 1
  1639   1638   1640 1
  1640   1638   1653 1
  1641   1640   1641 1
  1642   1640   1642 1
  1643   1640   1658 1
  1644   1642   1643 1
  1645   1642   1644 1
  1646   1642   1656 1
  1647   1644   1645 1
  1648   1644   1646 1
  1649   1644   1654 1
  1650   1646   1647 1
  1651   1646   1648 1
  1652   1646   1653 1
  1653   1648   1649 1
  1654   1648   1650 1
  1655   1648   1651 1
  1656   1651   1652 1
  1657   1654   1655 1
  1658   1656   1657 1
  1659   1658   1659 1
  1660   1660   1661 1
  1661   1661   1662 1
  1662   1661   1663 1
  1663   1661   1679 1
  1664   1663   1664 1
  1665   1664   1665 1
  1666   1664   1666 1
  1667   1664   1671 1
  1668   1666   1667 1
  1669   1666   1668 1
  1670   1666   1669 1
  1671   1669   1670 1
  1672   1671   1672 1
  1673   1671   1673 1
  1674   1671   1675 1
  1675   1673   1674 1
  1676   1675   1676 1
  1677   1675   1677 1
  1678   1675   1679 1
  1679   1677   1678 1
  1680   1679   1680 1
  1681   1679   1681 1
  1682   1681   1682 1
  1683   1683   1684 1
  1684   1684   1685 1
  1685   1684   1686 1
  1686   1684   1697 1
  1687   1686   1687 1
  1688   1686   1688 1
  1689   1686   1702 1
  1690   1688   1689 1
  1691   1688   1690 1
  1692   1688   1700 1
  1693   1690   1691 1
  1694   1690   1692 1
  1695   1690   1698 1
  1696   1692   1693 1
  1697   1692   1694 1
  1698   1692   1697 1
  1699   1694   1695 1
  1700   1694   1696 1
  1701   1698   1699 1
  1702   1700   1701 1
  1703   1702   1703 1
  1704   1704   1705 1
  1705   1705   1706 1
  1706   1705   1707 1
  1707   1705   1721 1
  1708   1707   1708 1
  1709   1708   1709 1
  1710   1708   1710 1
  1711   1708   1713 1
  1712   1710   1711 1
  1713   1710   1712 1
  1714   1713   1714 1
  1715   1713   1715 1
  1716   1713   1717 1
  1717   1715   1716 1
  1718   1717   1718 1
  1719   1717   1719 1
  1720   1717   1721 1
  1721   1719   1720 1
  1722   1721   1722 1
  1723   1721   1723 1
  1724   1723   1724 1
  1725   1725   1726 1
  1726   1725   1735 1
  1727   1725   1742 1
  1728   1726   1727 1
  1729   1726   1728 1
  1730   1726   1740 1
  1731   1728   1729 1
  1732   1728   1730 1
  1733   1728   1738 1
  1734   1730   1731 1
  1735   1730   1732 1
  1736   1730   1736 1
  1737   1732   1733 1
  1738   1732   1734 1
  1739   1732   1735 1
  1740   1736   1737 1
  1741   1738   1739 1
  1742   1740   1741 1
  1743   1742   1743 1
  1744   1742   1744 1
  1745   1742   1745 1
  1746   1746   1747 1
  1747   1746   1759 1
  1748   1746   1763 1
  1749   1747   1748 1
  1750   1748   1749 1
  1751   1748   1750 1
  1752   1748   1751 1
  1753   1751   1752 1
  1754   1751   1753 1
  1755   1751   1755 1
  1756   1753   1754 1
  1757   1755   1756 1
  1758   1755   1757 1
  1759   1755   1759 1
  1760   1757   1758 1
  1761   1759   1760 1
  1762   1759   1761 1
  1763   1761   1762 1
  1764   1763   1764 1
  1765   1763   1765 1
  1766   1763   1766 1
  1767   1767   1768 1
  1768   1768   1769 1
  1769   1768   1770 1
  1770   1768   1782 1
  1771   1770   1771 1
  1772   1770   1772 1
  1773   1770   1787 1
  1774   1772   1773 1
  1775   1772   1774 1
  1776   1772   1785 1
  1777   1774   1775 1
  1778   1774   1776 1
  1779   1774   1783 1
  1780   1776   1777 1
  1781   1776   1778 1
  1782   1776   1782 1
  1783   1778   1779 1
  1784   1778   1780 1
  1785   1778   1781 1
  1786   1783   1784 1
  1787   1785   1786 1
  1788   1787   1788 1
  1789   1789   1790 1
  1790   1790   1791 1
  1791   1790   1792 1
  1792   1790   1807 1
  1793   1792   1793 1
  1794   1793   1794 1
  1795   1793   1795 1
  1796   1793   1799 1
  1797   1795   1796 1
  1798   1795   1797 1
  1799   1795   1798 1
  1800   1799   1800 1
  1801   1799   1801 1
  1802   1799   1803 1
  1803   1801   1802 1
  1804   1803   1804 1
  1805   1803   1805 1
  1806   1803   1807 1
  1807   1805   1806 1
  1808   1807   1808 1
  1809   1807   1809 1
  1810   1809   1810 1
  1811   1811   1812 1
  1812   1812   1813 1
  1813   1812   1814 1
  1814   1812   1823 1
  1815   1814   1815 1
  1816   1814   1816 1
  1817   1814   1828 1
  1818   1816   1817 1
  1819   1816   1818 1
  1820   1816   1826 1
  1821   1818   1819 1
  1822   1818   1820 1
  1823   1818   1824 1
  1824   1820   1821 1
  1825   1820   1822 1
  1826   1820   1823 1
  1827   1824   1825 1
  1828   1826   1827 1
  1829   1828   1829 1
  1830   1830   1831 1
  1831   1831   1832 1
  1832   1831   1833 1
  1833   1831   1845 1
  1834   1833   1834 1
  1835   1834   1835 1
  1836   1834   1836 1
  1837   1834   1837 1
  1838   1837   1838 1
  1839   1837   1839 1
  1840   1837   1841 1
  1841   1839   1840 1
  1842   1841   1842 1
  1843   1841   1843 1
  1844   1841   1845 1
  1845   1843   1844 1
  1846   1845   1846 1
  1847   1845   1847 1
  1848   1847   1848 1
  1849   1849   1850 1
  1850   1850   1851 1
  1851   1850   1852 1
  1852   1850   1865 1
  1853   1852   1853 1
  1854   1852   1854 1
  1855   1852   1870 1
  1856   1854   1855 1
  1857   1854   1856 1
  1858   1854   1868 1
  1859   1856   1857 1
  1860   1856   1858 1
  1861   1856   1866 1
  1862   1858   1859 1
  1863   1858   1860 1
  1864   1858   1865 1
  1865   1860   1861 1
  1866   1860   1862 1
  1867   1860   1863 1
  1868   1863   1864 1
  1869   1866   1867 1
  1870   1868   1869 1
  1871   1870   1871 1
  1872   1872   1873 1
  1873   1873   1874 1
  1874   1873   1875 1
  1875   1873   1891 1
  1876   1875   1876 1
  1877   1876   1877 1
  1878   1876   1878 1
  1879   1876   1883 1
  1880   1878   1879 1
  1881   1878   1880 1
  1882   1878   1881 1
  1883   1881   1882 1
  1884   1883   1884 1
  1885   1883   1885 1
  1886   1883   1887 1
  1887   1885   1886 1
  1888   1887   1888 1
  1889   1887   1889 1
  1890   1887   1891 1
  1891   1889   1890 1
  1892   1891   1892 1
  1893   1891   1893 1
  1894   1893   1894 1
  1895   1895   1896 1
  1896   1896   1897 1
  1897   1896   1898 1
  1898   1896   1909 1
  1899   1898   1899 1
  1900   1898   1900 1
  1901   1898   1914 1
  1902   1900   1901 1
  1903   1900   1902 1
  1904   1900   1912 1
  1905   1902   1903 1
  1906   1902   1904 1
  1907   1902   1910 1
  1908   1904   1905 1
  1909   1904   1906 1
  1910   1904   1909 1
  1911   1906   1907 1
  1912   1906   1908 1
  1913   1910   1911 1
  1914   1912   1913 1
  1915   1914   1915 1
  1916   1916   1917 1
  1917   1917   1918 1
  1918   1917   1919 1
  1919   1917   1933 1
  1920   1919   1920 1
  1921   1920   1921 1
  1922   1920   1922 1
  1923   1920   1925 1
  1924   1922   1923 1
  1925   1922   1924 1
  1926   1925   1926 1
  1927   1925   1927 1
  1928   1925   1929 1
  1929   1927   1928 1
  1930   1929   1930 1
  1931   1929   1931 1
  1932   1929   1933 1
  1933   1931   1932 1
  1934   1933   1934 1
  1935   1933   1935 1
  1936   1935   1936 1
  1937   1937   1938 1
  1938   1938   1939 1
  1939   1938   1940 1
  1940   1938   1953 1
  1941   1940   1941 1
  1942   1940   1942 1
  1943   1940   1958 1
  1944   1942   1943 1
  1945   1942   1944 1
  1946   1942   1956 1
  1947   1944   1945 1
  1948   1944   1946 1
  1949   1944   1954 1
  1950   1946   1947 1
  1951   1946   1948 1
  1952   1946   1953 1
  1953   1948   1949 1
  1954   1948   1950 1
  1955   1948   1951 1
  1956   1951   1952 1
  1957   1954   1955 1
  1958   1956   1957 1
  1959   1958   1959 1
  1960   1958   1960 1
  1961   1960   1961 1
  1962   1960   1965 1
  1963   1961   1962 1
  1964   1961   1963 1
  1965   1961   1964 1
  1966   1966   1967 1
  1967   1967   1968 1
  1968   1967   1969 1
  1969   1967   1985 1
  1970   1969   1970 1
  1971   1970   1971 1
  1972   1970   1972 1
  1973   1970   1977 1
  1974   1972   1973 1
  1975   1972   1974 1
  1976   1972   1975 1
  1977   1975   1976 1
  1978   1977   1978 1
  1979   1977   1979 1
  1980   1977   1981 1
  1981   1979   1980 1
  1982   1981   1982 1
  1983   1981   1983 1
  1984   1981   1985 1
  1985   1983   1984 1
  1986   1985   1986 1
  1987   1985   1987 1
  1988   1987   1988 1
  1989   1987   1989 1
  1990   1989   1990 1
  1991   1989   1991 1
  1992   1991   1992 1
  1993   1991   1993 1
  1994   1991   1994 1
  1995   1995   1996 1
  1996   1996   1997 1
  1997   1996   1998 1
  1998   1996   2011 1
  1999   1998   1999 1
  2000   1998   2000 1
  2001   1998   2016 1
  2002   2000   2001 1
  2003   2000   2002 1
  2004   2000   2014 1
  2005   2002   2003 1
  2006   2002   2004 1
  2007   2002   2012 1
  2008   2004   2005 1
  2009   2004   2006 1
  2010   2004   2011 1
  2011   2006   2007 1
  2012   2006   2008 1
  2013   2006   2009 1
  2014   2009   2010 1
  2015   2012   2013 1
  2016   2014   2015 1
  2017   2016   2017 1
  2018   2016   2018 1
  2019   2018   2019 1
  2020   2018   2023 1
  2021   2019   2020 1
  2022   2019   2021 1
  2023   2019   2022 1
  2024   2024   2025 1
  2025   2025   2026 1
  2026   2025   2027 1
  2027   2025   2043 1
  2028   2027   2028 1
  2029   2028   2029 1
  2030   2028   2030 1
  2031   2028   2035 1
  2032   2030   2031 1
  2033   2030   2032 1
  2034   2030   2033 1
  2035   2033   2034 1
  2036   2035   2036 1
  2037   2035   2037 1
  2038   2035   2039 1
  2039   2037   2038 1
  2040   2039   2040 1
  2041   2039   2041 1
  2042   2039   2043 1
  2043   2041   2042 1
  2044   2043   2044 1
  2045   2043   2045 1
  2046   2045   2046 1
  2047   2045   2047 1
  2048   2047   2048 1
  2049   2047   2049 1
  2050   2049   2050 1
  2051   2049   2051 1
  2052   2049   2052 1
  2053   2053   2054 1
  2054   2054   2055 1
  2055   2054   2056 1
  2056   2054   2065 1
  2057   2056   2057 1
  2058   2056   2058 1
  2059   2056   2070 1
  2060   2058   2059 1
  2061   2058   2060 1
  2062   2058   2068 1
  2063   2060   2061 1
  2064   2060   2062 1
  2065   2060   2066 1
  2066   2062   2063 1
  2067   2062   2064 1
  2068   2062   2065 1
  2069   2066   2067 1
  2070   2068   2069 1
  2071   2070   2071 1
  2072   2072   2073 1
  2073   2073   2074 1
  2074   2073   2075 1
  2075   2073   2087 1
  2076   2075   2076 1
  2077   2076   2077 1
  2078   2076   2078 1
  2079   2076   2079 1
  2080   2079   2080 1
  2081   2079   2081 1
  2082   2079   2083 1
  2083   2081   2082 1
  2084   2083   2084 1
  2085   2083   2085 1
  2086   2083   2087 1
  2087   2085   2086 1
  2088   2087   2088 1
  2089   2087   2089 1
  2090   2089   2090 1
  2091   2091   2092 1
  2092   2092   2093 1
  2093   2092   2094 1
  2094   2092   2107 1
  2095   2094   2095 1
  2096   2094   2096 1
  2097   2094   2112 1
  2098   2096   2097 1
  2099   2096   2098 1
  2100   2096   2110 1
  2101   2098   2099 1
  2102   2098   2100 1
  2103   2098   2108 1
  2104   2100   2101 1
  2105   2100   2102 1
  2106   2100   2107 1
  2107   2102   2103 1
  2108   2102   2104 1
  2109   2102   2105 1
  2110   2105   2106 1
  2111   2108   2109 1
  2112   2110   2111 1
  2113   2112   2113 1
  2114   2112   2114 1
  2115   2114   2115 1
  2116   2114   2119 1
  2117   2115   2116 1
  2118   2115   2117 1
  2119   2115   2118 1
  2120   2120   2121 1
  2121   2121   2122 1
  2122   2121   2123 1
  2123   2121   2139 1
  2124   2123   2124 1
  2125   2124   2125 1
  2126   2124   2126 1
  2127   2124   2131 1
  2128   2126   2127 1
  2129   2126   2128 1
  2130   2126   2129 1
  2131   2129   2130 1
  2132   2131   2132 1
  2133   2131   2133 1
  2134   2131   2135 1
  2135   2133   2134 1
  2136   2135   2136 1
  2137   2135   2137 1
  2138   2135   2139 1
  2139   2137   2138 1
  2140   2139   2140 1
  2141   2139   2141 1
  2142   2141   2142 1
  2143   2141   2143 1
  2144   2143   2144 1
  2145   2143   2145 1
  2146   2145   2146 1
  2147   2145   2147 1
  2148   2145   2148 1
  2149   2149   2150 1
  2150   2150   2151 1
  2151   2150   2152 1
  2152   2150   2163 1
  2153   2152   2153 1
  2154   2152   2154 1
  2155   2152   2168 1
  2156   2154   2155 1
  2157   2154   2156 1
  2158   2154   2166 1
  2159   2156   2157 1
  2160   2156   2158 1
  2161   2156   2164 1
  2162   2158   2159 1
  2163   2158   2160 1
  2164   2158   2163 1
  2165   2160   2161 1
  2166   2160   2162 1
  2167   2164   2165 1
  2168   2166   2167 1
  2169   2168   2169 1
  2170   2170   2171 1
  2171   2171   2172 1
  2172   2171   2173 1
  2173   2171   2187 1
  2174   2173   2174 1
  2175   2174   2175 1
  2176   2174   2176 1
  2177   2174   2179 1
  2178   2176   2177 1
  2179   2176   2178 1
  2180   2179   2180 1
  2181   2179   2181 1
  2182   2179   2183 1
  2183   2181   2182 1
  2184   2183   2184 1
  2185   2183   2185 1
  2186   2183   2187 1
  2187   2185   2186 1
  2188   2187   2188 1
  2189   2187   2189 1
  2190   2189   2190 1
  2191   2191   2192 1
  2192   2191   2193 1
  2193   2191   2202 1
  2194   2193   2194 1
  2195   2193   2195 1
  2196   2193   2207 1
  2197   2195   2196 1
  2198   2195   2197 1
  2199   2195   2205 1
  2200   2197   2198 1
  2201   2197   2199 1
  2202   2197   2203 1
  2203   2199   2200 1
  2204   2199   2201 1
  2205   2199   2202 1
  2206   2203   2204 1
  2207   2205   2206 1
  2208   2208   2209 1
  2209   2208   2210 1
  2210   2208   2222 1
  2211   2210   2211 1
  2212   2211   2212 1
  2213   2211   2213 1
  2214   2211   2214 1
  2215   2214   2215 1
  2216   2214   2216 1
  2217   2214   2218 1
  2218   2216   2217 1
  2219   2218   2219 1
  2220   2218   2220 1
  2221   2218   2222 1
  2222   2220   2221 1
  2223   2222   2223 1
  2224   2222   2224 1
  2225   2225   2226 1
  2226   2226   2227 1
  2227   2226   2232 1
  2228   2226   2241 1
  2229   2227   2228 1
  2230   2227   2229 1
  2231   2227   2230 1
  2232   2230   2231 1
  2233   2232   2233 1
  2234   2232   2234 1
  2235   2232   2246 1
  2236   2234   2235 1
  2237   2234   2236 1
  2238   2234   2244 1
  2239   2236   2237 1
  2240   2236   2238 1
  2241   2236   2242 1
  2242   2238   2239 1
  2243   2238   2240 1
  2244   2238   2241 1
  2245   2242   2243 1
  2246   2244   2245 1
  2247   2246   2247 1
  2248   2248   2249 1
  2249   2249   2250 1
  2250   2249   2262 1
  2251   2249   2266 1
  2252   2250   2251 1
  2253   2251   2252 1
  2254   2251   2253 1
  2255   2251   2254 1
  2256   2254   2255 1
  2257   2254   2256 1
  2258   2254   2258 1
  2259   2256   2257 1
  2260   2258   2259 1
  2261   2258   2260 1
  2262   2258   2262 1
  2263   2260   2261 1
  2264   2262   2263 1
  2265   2262   2264 1
  2266   2264   2265 1
  2267   2266   2267 1
  2268   2266   2268 1
  2269   2266   2269 1
  2270   2269   2270 1
  2271   2271   2272 1
  2272   2272   2273 1
  2273   2272   2278 1
  2274   2272   2287 1
  2275   2273   2274 1
  2276   2273   2275 1
  2277   2273   2276 1
  2278   2276   2277 1
  2279   2278   2279 1
  2280   2278   2280 1
  2281   2278   2292 1
  2282   2280   2281 1
  2283   2280   2282 1
  2284   2280   2290 1
  2285   2282   2283 1
  2286   2282   2284 1
  2287   2282   2288 1
  2288   2284   2285 1
  2289   2284   2286 1
  2290   2284   2287 1
  2291   2288   2289 1
  2292   2290   2291 1
  2293   2292   2293 1
  2294   2294   2295 1
  2295   2295   2296 1
  2296   2295   2308 1
  2297   2295   2312 1
  2298   2296   2297 1
  2299   2297   2298 1
  2300   2297   2299 1
  2301   2297   2300 1
  2302   2300   2301 1
  2303   2300   2302 1
  2304   2300   2304 1
  2305   2302   2303 1
  2306   2304   2305 1
  2307   2304   2306 1
  2308   2304   2308 1
  2309   2306   2307 1
  2310   2308   2309 1
  2311   2308   2310 1
  2312   2310   2311 1
  2313   2312   2313 1
  2314   2312   2314 1
  2315   2312   2315 1
  2316   2315   2316 1
  2317   2317   2318 1
  2318   2317   2319 1
  2319   2317   2328 1
  2320   2319   2320 1
  2321   2319   2321 1
  2322   2319   2333 1
  2323   2321   2322 1
  2324   2321   2323 1
  2325   2321   2331 1
  2326   2323   2324 1
  2327   2323   2325 1
  2328   2323   2329 1
  2329   2325   2326 1
  2330   2325   2327 1
  2331   2325   2328 1
  2332   2329   2330 1
  2333   2331   2332 1
  2334   2334   2335 1
  2335   2334   2336 1
  2336   2334   2348 1
  2337   2336   2337 1
  2338   2337   2338 1
  2339   2337   2339 1
  2340   2337   2340 1
  2341   2340   2341 1
  2342   2340   2342 1
  2343   2340   2344 1
  2344   2342   2343 1
  2345   2344   2345 1
  2346   2344   2346 1
  2347   2344   2348 1
  2348   2346   2347 1
  2349   2348   2349 1
  2350   2348   2350 1
  2351   2351   2352 1
  2352   2351   2353 1
  2353   2351   2366 1
  2354   2353   2354 1
  2355   2353   2355 1
  2356   2353   2371 1
  2357   2355   2356 1
  2358   2355   2357 1
  2359   2355   2369 1
  2360   2357   2358 1
  2361   2357   2359 1
  2362   2357   2367 1
  2363   2359   2360 1
  2364   2359   2361 1
  2365   2359   2366 1
  2366   2361   2362 1
  2367   2361   2363 1
  2368   2361   2364 1
  2369   2364   2365 1
  2370   2367   2368 1
  2371   2369   2370 1
  2372   2372   2373 1
  2373   2372   2374 1
  2374   2372   2390 1
  2375   2374   2375 1
  2376   2375   2376 1
  2377   2375   2377 1
  2378   2375   2382 1
  2379   2377   2378 1
  2380   2377   2379 1
  2381   2377   2380 1
  2382   2380   2381 1
  2383   2382   2383 1
  2384   2382   2384 1
  2385   2382   2386 1
  2386   2384   2385 1
  2387   2386   2387 1
  2388   2386   2388 1
  2389   2386   2390 1
  2390   2388   2389 1
  2391   2390   2391 1
  2392   2390   2392 1
  2393   2393   2394 1
  2394   2393   2395 1
  2395   2393   2407 1
  2396   2395   2396 1
  2397   2395   2397 1
  2398   2395   2412 1
  2399   2397   2398 1
  2400   2397   2399 1
  2401   2397   2410 1
  2402   2399   2400 1
  2403   2399   2401 1
  2404   2399   2408 1
  2405   2401   2402 1
  2406   2401   2403 1
  2407   2401   2407 1
  2408   2403   2404 1
  2409   2403   2405 1
  2410   2403   2406 1
  2411   2408   2409 1
  2412   2410   2411 1
  2413   2413   2414 1
  2414   2413   2415 1
  2415   2413   2430 1
  2416   2415   2416 1
  2417   2416   2417 1
  2418   2416   2418 1
  2419   2416   2422 1
  2420   2418   2419 1
  2421   2418   2420 1
  2422   2418   2421 1
  2423   2422   2423 1
  2424   2422   2424 1
  2425   2422   2426 1
  2426   2424   2425 1
  2427   2426   2427 1
  2428   2426   2428 1
  2429   2426   2430 1
  2430   2428   2429 1
  2431   2430   2431 1
  2432   2430   2432 1
  2433   2433   2434 1
  2434   2433   2435 1
  2435   2433   2448 1
  2436   2435   2436 1
  2437   2435   2437 1
  2438   2435   2453 1
  2439   2437   2438 1
  2440   2437   2439 1
  2441   2437   2451 1
  2442   2439   2440 1
  2443   2439   2441 1
  2444   2439   2449 1
  2445   2441   2442 1
  2446   2441   2443 1
  2447   2441   2448 1
  2448   2443   2444 1
  2449   2443   2445 1
  2450   2443   2446 1
  2451   2446   2447 1
  2452   2449   2450 1
  2453   2451   2452 1
  2454   2454   2455 1
  2455   2454   2456 1
  2456   2454   2472 1
  2457   2456   2457 1
  2458   2457   2458 1
  2459   2457   2459 1
  2460   2457   2464 1
  2461   2459   2460 1
  2462   2459   2461 1
  2463   2459   2462 1
  2464   2462   2463 1
  2465   2464   2465 1
  2466   2464   2466 1
  2467   2464   2468 1
  2468   2466   2467 1
  2469   2468   2469 1
  2470   2468   2470 1
  2471   2468   2472 1
  2472   2470   2471 1
  2473   2472   2473 1
  2474   2472   2474 1
  2475   2475   2476 1
  2476   2475   2477 1
  2477   2475   2489 1
  2478   2477   2478 1
  2479   2477   2479 1
  2480   2477   2494 1
  2481   2479   2480 1
  2482   2479   2481 1
  2483   2479   2492 1
  2484   2481   2482 1
  2485   2481   2483 1
  2486   2481   2490 1
  2487   2483   2484 1
  2488   2483   2485 1
  2489   2483   2489 1
  2490   2485   2486 1
  2491   2485   2487 1
  2492   2485   2488 1
  2493   2490   2491 1
  2494   2492   2493 1
  2495   2495   2496 1
  2496   2495   2497 1
  2497   2495   2512 1
  2498   2497   2498 1
  2499   2498   2499 1
  2500   2498   2500 1
  2501   2498   2504 1
  2502   2500   2501 1
  2503   2500   2502 1
  2504   2500   2503 1
  2505   2504   2505 1
  2506   2504   2506 1
  2507   2504   2508 1
  2508   2506   2507 1
  2509   2508   2509 1
  2510   2508   2510 1
  2511   2508   2512 1
  2512   2510   2511 1
  2513   2512   2513 1
  2514   2512   2514 1
  2515   2515   2516 1
  2516   2516   2517 1
  2517   2516   2522 1
  2518   2516   2531 1
  2519   2517   2518 1
  2520   2517   2519 1
  2521   2517   2520 1
  2522   2520   2521 1
  2523   2522   2523 1
  2524   2522   2524 1
  2525   2522   2536 1
  2526   2524   2525 1
  2527   2524   2526 1
  2528   2524   2534 1
  2529   2526   2527 1
  2530   2526   2528 1
  2531   2526   2532 1
  2532   2528   2529 1
  2533   2528   2530 1
  2534   2528   2531 1
  2535   2532   2533 1
  2536   2534   2535 1
  2537   2536   2537 1
  2538   2538   2539 1
  2539   2539   2540 1
  2540   2539   2552 1
  2541   2539   2556 1
  2542   2540   2541 1
  2543   2541   2542 1
  2544   2541   2543 1
  2545   2541   2544 1
  2546   2544   2545 1
  2547   2544   2546 1
  2548   2544   2548 1
  2549   2546   2547 1
  2550   2548   2549 1
  2551   2548   2550 1
  2552   2548   2552 1
  2553   2550   2551 1
  2554   2552   2553 1
  2555   2552   2554 1
  2556   2554   2555 1
  2557   2556   2557 1
  2558   2556   2558 1
  2559   2556   2559 1
  2560   2559   2560 1
  2561   2561   2562 1
  2562   2561   2563 1
  2563   2561   2576 1
  2564   2563   2564 1
  2565   2563   2565 1
  2566   2563   2581 1
  2567   2565   2566 1
  2568   2565   2567 1
  2569   2565   2579 1
  2570   2567   2568 1
  2571   2567   2569 1
  2572   2567   2577 1
  2573   2569   2570 1
  2574   2569   2571 1
  2575   2569   2576 1
  2576   2571   2572 1
  2577   2571   2573 1
  2578   2571   2574 1
  2579   2574   2575 1
  2580   2577   2578 1
  2581   2579   2580 1
  2582   2582   2583 1
  2583   2582   2584 1
  2584   2582   2600 1
  2585   2584   2585 1
  2586   2585   2586 1
  2587   2585   2587 1
  2588   2585   2592 1
  2589   2587   2588 1
  2590   2587   2589 1
  2591   2587   2590 1
  2592   2590   2591 1
  2593   2592   2593 1
  2594   2592   2594 1
  2595   2592   2596 1
  2596   2594   2595 1
  2597   2596   2597 1
  2598   2596   2598 1
  2599   2596   2600 1
  2600   2598   2599 1
  2601   2600   2601 1
  2602   2600   2602 1
  2603   2603   2604 1
  2604   2603   2605 1
  2605   2603   2618 1
  2606   2605   2606 1
  2607   2605   2607 1
  2608   2605   2623 1
  2609   2607   2608 1
  2610   2607   2609 1
  2611   2607   2621 1
  2612   2609   2610 1
  2613   2609   2611 1
  2614   2609   2619 1
  2615   2611   2612 1
  2616   2611   2613 1
  2617   2611   2618 1
  2618   2613   2614 1
  2619   2613   2615 1
  2620   2613   2616 1
  2621   2616   2617 1
  2622   2619   2620 1
  2623   2621   2622 1
  2624   2624   2625 1
  2625   2624   2626 1
  2626   2624   2642 1
  2627   2626   2627 1
  2628   2627   2628 1
  2629   2627   2629 1
  2630   2627   2634 1
  2631   2629   2630 1
  2632   2629   2631 1
  2633   2629   2632 1
  2634   2632   2633 1
  2635   2634   2635 1
  2636   2634   2636 1
  2637   2634   2638 1
  2638   2636   2637 1
  2639   2638   2639 1
  2640   2638   2640 1
  2641   2638   2642 1
  2642   2640   2641 1
  2643   2642   2643 1
  2644   2642   2644 1
  2645   2645   2646 1
  2646   2645   2647 1
  2647   2645   2660 1
  2648   2647   2648 1
  2649   2647   2649 1
  2650   2647   2665 1
  2651   2649   2650 1
  2652   2649   2651 1
  2653   2649   2663 1
  2654   2651   2652 1
  2655   2651   2653 1
  2656   2651   2661 1
  2657   2653   2654 1
  2658   2653   2655 1
  2659   2653   2660 1
  2660   2655   2656 1
  2661   2655   2657 1
  2662   2655   2658 1
  2663   2658   2659 1
  2664   2661   2662 1
  2665   2663   2664 1
  2666   2666   2667 1
  2667   2666   2668 1
  2668   2666   2684 1
  2669   2668   2669 1
  2670   2669   2670 1
  2671   2669   2671 1
  2672   2669   2676 1
  2673   2671   2672 1
  2674   2671   2673 1
  2675   2671   2674 1
  2676   2674   2675 1
  2677   2676   2677 1
  2678   2676   2678 1
  2679   2676   2680 1
  2680   2678   2679 1
  2681   2680   2681 1
  2682   2680   2682 1
  2683   2680   2684 1
  2684   2682   2683 1
  2685   2684   2685 1
  2686   2684   2686 1
  2687   2687   2688 1
  2688   2687   2689 1
  2689   2687   2702 1
  2690   2689   2690 1
  2691   2689   2691 1
  2692   2689   2707 1
  2693   2691   2692 1
  2694   2691   2693 1
  2695   2691   2705 1
  2696   2693   2694 1
  2697   2693   2695 1
  2698   2693   2703 1
  2699   2695   2696 1
  2700   2695   2697 1
  2701   2695   2702 1
  2702   2697   2698 1
  2703   2697   2699 1
  2704   2697   2700 1
  2705   2700   2701 1
  2706   2703   2704 1
  2707   2705   2706 1
  2708   2708   2709 1
  2709   2708   2710 1
  2710   2708   2726 1
  2711   2710   2711 1
  2712   2711   2712 1
  2713   2711   2713 1
  2714   2711   2718 1
  2715   2713   2714 1
  2716   2713   2715 1
  2717   2713   2716 1
  2718   2716   2717 1
  2719   2718   2719 1
  2720   2718   2720 1
  2721   2718   2722 1
  2722   2720   2721 1
  2723   2722   2723 1
  2724   2722   2724 1
  2725   2722   2726 1
  2726   2724   2725 1
  2727   2726   2727 1
  2728   2726   2728 1
  2729   2729   2730 1
  2730   2729   2731 1
  2731   2729   2742 1
  2732   2731   2732 1
  2733   2731   2733 1
  2734   2731   2747 1
  2735   2733   2734 1
  2736   2733   2735 1
  2737   2733   2745 1
  2738   2735   2736 1
  2739   2735   2737 1
  2740   2735   2743 1
  2741   2737   2738 1
  2742   2737   2739 1
  2743   2737   2742 1
  2744   2739   2740 1
  2745   2739   2741 1
  2746   2743   2744 1
  2747   2745   2746 1
  2748   2748   2749 1
  2749   2748   2750 1
  2750   2748   2764 1
  2751   2750   2751 1
  2752   2751   2752 1
  2753   2751   2753 1
  2754   2751   2756 1
  2755   2753   2754 1
  2756   2753   2755 1
  2757   2756   2757 1
  2758   2756   2758 1
  2759   2756   2760 1
  2760   2758   2759 1
  2761   2760   2761 1
  2762   2760   2762 1
  2763   2760   2764 1
  2764   2762   2763 1
  2765   2764   2765 1
  2766   2764   2766 1
  2767   2767   2768 1
  2768   2768   2769 1
  2769   2768   2774 1
  2770   2768   2783 1
  2771   2769   2770 1
  2772   2769   2771 1
  2773   2769   2772 1
  2774   2772   2773 1
  2775   2774   2775 1
  2776   2774   2776 1
  2777   2774   2788 1
  2778   2776   2777 1
  2779   2776   2778 1
  2780   2776   2786 1
  2781   2778   2779 1
  2782   2778   2780 1
  2783   2778   2784 1
  2784   2780   2781 1
  2785   2780   2782 1
  2786   2780   2783 1
  2787   2784   2785 1
  2788   2786   2787 1
  2789   2788   2789 1
  2790   2790   2791 1
  2791   2791   2792 1
  2792   2791   2804 1
  2793   2791   2808 1
  2794   2792   2793 1
  2795   2793   2794 1
  2796   2793   2795 1
  2797   2793   2796 1
  2798   2796   2797 1
  2799   2796   2798 1
  2800   2796   2800 1
  2801   2798   2799 1
  2802   2800   2801 1
  2803   2800   2802 1
  2804   2800   2804 1
  2805   2802   2803 1
  2806   2804   2805 1
  2807   2804   2806 1
  2808   2806   2807 1
  2809   2808   2809 1
  2810   2808   2810 1
  2811   2808   2811 1
  2812   2811   2812 1
  2813   2813   2814 1
  2814   2813   2815 1
  2815   2813   2827 1
  2816   2815   2816 1
  2817   2815   2817 1
  2818   2815   2832 1
  2819   2817   2818 1
  2820   2817   2819 1
  2821   2817   2830 1
  2822   2819   2820 1
  2823   2819   2821 1
  2824   2819   2828 1
  2825   2821   2822 1
  2826   2821   2823 1
  2827   2821   2827 1
  2828   2823   2824 1
  2829   2823   2825 1
  2830   2823   2826 1
  2831   2828   2829 1
  2832   2830   2831 1
  2833   2833   2834 1
  2834   2833   2835 1
  2835   2833   2850 1
  2836   2835   2836 1
  2837   2836   2837 1
  2838   2836   2838 1
  2839   2836   2842 1
  2840   2838   2839 1
  2841   2838   2840 1
  2842   2838   2841 1
  2843   2842   2843 1
  2844   2842   2844 1
  2845   2842   2846 1
  2846   2844   2845 1
  2847   2846   2847 1
  2848   2846   2848 1
  2849   2846   2850 1
  2850   2848   2849 1
  2851   2850   2851 1
  2852   2850   2852 1
  2853   2853   2854 1
  2854   2853   2855 1
  2855   2853   2864 1
  2856   2855   2856 1
  2857   2855   2857 1
  2858   2855   2869 1
  2859   2857   2858 1
  2860   2857   2859 1
  2861   2857   2867 1
  2862   2859   2860 1
  2863   2859   2861 1
  2864   2859   2865 1
  2865   2861   2862 1
  2866   2861   2863 1
  2867   2861   2864 1
  2868   2865   2866 1
  2869   2867   2868 1
  2870   2870   2871 1
  2871   2870   2872 1
  2872   2870   2884 1
  2873   2872   2873 1
  2874   2873   2874 1
  2875   2873   2875 1
  2876   2873   2876 1
  2877   2876   2877 1
  2878   2876   2878 1
  2879   2876   2880 1
  2880   2878   2879 1
  2881   2880   2881 1
  2882   2880   2882 1
  2883   2880   2884 1
  2884   2882   2883 1
  2885   2884   2885 1
  2886   2884   2886 1
  2887   2887   2888 1
  2888   2887   2889 1
  2889   2887   2902 1
  2890   2889   2890 1
  2891   2889   2891 1
  2892   2889   2907 1
  2893   2891   2892 1
  2894   2891   2893 1
  2895   2891   2905 1
  2896   2893   2894 1
  2897   2893   2895 1
  2898   2893   2903 1
  2899   2895   2896 1
  2900   2895   2897 1
  2901   2895   2902 1
  2902   2897   2898 1
  2903   2897   2899 1
  2904   2897   2900 1
  2905   2900   2901 1
  2906   2903   2904 1
  2907   2905   2906 1
  2908   2908   2909 1
  2909   2908   2910 1
  2910   2908   2926 1
  2911   2910   2911 1
  2912   2911   2912 1
  2913   2911   2913 1
  2914   2911   2918 1
  2915   2913   2914 1
  2916   2913   2915 1
  2917   2913   2916 1
  2918   2916   2917 1
  2919   2918   2919 1
  2920   2918   2920 1
  2921   2918   2922 1
  2922   2920   2921 1
  2923   2922   2923 1
  2924   2922   2924 1
  2925   2922   2926 1
  2926   2924   2925 1
  2927   2926   2927 1
  2928   2926   2928 1
  2929   2929   2930 1
  2930   2929   2931 1
  2931   2929   2942 1
  2932   2931   2932 1
  2933   2931   2933 1
  2934   2931   2947 1
  2935   2933   2934 1
  2936   2933   2935 1
  2937   2933   2945 1
  2938   2935   2936 1
  2939   2935   2937 1
  2940   2935   2943 1
  2941   2937   2938 1
  2942   2937   2939 1
  2943   2937   2942 1
  2944   2939   2940 1
  2945   2939   2941 1
  2946   2943   2944 1
  2947   2945   2946 1
  2948   2948   2949 1
  2949   2948   2950 1
  2950   2948   2964 1
  2951   2950   2951 1
  2952   2951   2952 1
  2953   2951   2953 1
  2954   2951   2956 1
  2955   2953   2954 1
  2956   2953   2955 1
  2957   2956   2957 1
  2958   2956   2958 1
  2959   2956   2960 1
  2960   2958   2959 1
  2961   2960   2961 1
  2962   2960   2962 1
  2963   2960   2964 1
  2964   2962   2963 1
  2965   2964   2965 1
  2966   2964   2966 1
  2967   2967   2968 1
  2968   2967   2969 1
  2969   2967   2978 1
  2970   2969   2970 1
  2971   2969   2971 1
  2972   2969   2983 1
  2973   2971   2972 1
  2974   2971   2973 1
  2975   2971   2981 1
  2976   2973   2974 1
  2977   2973   2975 1
  2978   2973   2979 1
  2979   2975   2976 1
  2980   2975   2977 1
  2981   2975   2978 1
  2982   2979   2980 1
  2983   2981   2982 1
  2984   2984   2985 1
  2985   2984   2986 1
  2986   2984   2998 1
  2987   2986   2987 1
  2988   2987   2988 1
  2989   2987   2989 1
  2990   2987   2990 1
  2991   2990   2991 1
  2992   2990   2992 1
  2993   2990   2994 1
  2994   2992   2993 1
  2995   2994   2995 1
  2996   2994   2996 1
  2997   2994   2998 1
  2998   2996   2997 1
  2999   2998   2999 1
  3000   2998   3000 1
  3001   3001   3002 1
  3002   3001   3003 1
  3003   3001   3014 1
  3004   3003   3004 1
  3005   3003   3005 1
  3006   3003   3019 1
  3007   3005   3006 1
  3008   3005   3007 1
  3009   3005   3017 1
  3010   3007   3008 1
  3011   3007   3009 1
  3012   3007   3015 1
  3013   3009   3010 1
  3014   3009   3011 1
  3015   3009   3014 1
  3016   3011   3012 1
  3017   3011   3013 1
  3018   3015   3016 1
  3019   3017   3018 1
  3020   3020   3021 1
  3021   3020   3022 1
  3022   3020   3036 1
  3023   3022   3023 1
  3024   3023   3024 1
  3025   3023   3025 1
  3026   3023   3028 1
  3027   3025   3026 1
  3028   3025   3027 1
  3029   3028   3029 1
  3030   3028   3030 1
  3031   3028   3032 1
  3032   3030   3031 1
  3033   3032   3033 1
  3034   3032   3034 1
  3035   3032   3036 1
  3036   3034   3035 1
  3037   3036   3037 1
  3038   3036   3038 1
  3039   3039   3040 1
  3040   3039   3041 1
  3041   3039   3052 1
  3042   3041   3042 1
  3043   3041   3043 1
  3044   3041   3045 1
  3045   3043   3044 1
  3046   3045   3046 1
  3047   3045   3047 1
  3048   3045   3055 1
  3049   3047   3048 1
  3050   3047   3049 1
  3051   3047   3053 1
  3052   3049   3050 1
  3053   3049   3051 1
  3054   3049   3052 1
  3055   3053   3054 1
  3056   3056   3057 1
  3057   3056   3058 1
  3058   3056   3068 1
  3059   3058   3059 1
  3060   3059   3060 1
  3061   3059   3061 1
  3062   3059   3062 1
  3063   3062   3063 1
  3064   3062   3064 1
  3065   3062   3066 1
  3066   3064   3065 1
  3067   3066   3067 1
  3068   3066   3068 1
  3069   3066   3072 1
  3070   3068   3069 1
  3071   3068   3070 1
  3072   3070   3071 1
  3073   3073   3074 1
  3074   3073   3079 1
  3075   3073   3088 1
  3076   3074   3075 1
  3077   3074   3076 1
  3078   3074   3077 1
  3079   3077   3078 1
  3080   3079   3080 1
  3081   3079   3081 1
  3082   3079   3093 1
  3083   3081   3082 1
  3084   3081   3083 1
  3085   3081   3091 1
  3086   3083   3084 1
  3087   3083   3085 1
  3088   3083   3089 1
  3089   3085   3086 1
  3090   3085   3087 1
  3091   3085   3088 1
  3092   3089   3090 1
  3093   3091   3092 1
  3094   3094   3095 1
  3095   3094   3100 1
  3096   3094   3112 1
  3097   3095   3096 1
  3098   3095   3097 1
  3099   3095   3098 1
  3100   3098   3099 1
  3101   3100   3101 1
  3102   3101   3102 1
  3103   3101   3103 1
  3104   3101   3104 1
  3105   3104   3105 1
  3106   3104   3106 1
  3107   3104   3108 1
  3108   3106   3107 1
  3109   3108   3109 1
  3110   3108   3110 1
  3111   3108   3112 1
  3112   3110   3111 1
  3113   3112   3113 1
  3114   3112   3114 1
  3115   3115   3116 1
  3116   3115   3121 1
  3117   3115   3130 1
  3118   3116   3117 1
  3119   3116   3118 1
  3120   3116   3119 1
  3121   3119   3120 1
  3122   3121   3122 1
  3123   3121   3123 1
  3124   3121   3135 1
  3125   3123   3124 1
  3126   3123   3125 1
  3127   3123   3133 1
  3128   3125   3126 1
  3129   3125   3127 1
  3130   3125   3131 1
  3131   3127   3128 1
  3132   3127   3129 1
  3133   3127   3130 1
  3134   3131   3132 1
  3135   3133   3134 1
  3136   3136   3137 1
  3137   3136   3142 1
  3138   3136   3154 1
  3139   3137   3138 1
  3140   3137   3139 1
  3141   3137   3140 1
  3142   3140   3141 1
  3143   3142   3143 1
  3144   3143   3144 1
  3145   3143   3145 1
  3146   3143   3146 1
  3147   3146   3147 1
  3148   3146   3148 1
  3149   3146   3150 1
  3150   3148   3149 1
  3151   3150   3151 1
  3152   3150   3152 1
  3153   3150   3154 1
  3154   3152   3153 1
  3155   3154   3155 1
  3156   3154   3156 1
  3157   3157   3158 1
  3158   3157   3159 1
  3159   3157   3170 1
  3160   3159   3160 1
  3161   3159   3161 1
  3162   3159   3163 1
  3163   3161   3162 1
  3164   3163   3164 1
  3165   3163   3165 1
  3166   3163   3173 1
  3167   3165   3166 1
  3168   3165   3167 1
  3169   3165   3171 1
  3170   3167   3168 1
  3171   3167   3169 1
  3172   3167   3170 1
  3173   3171   3172 1
  3174   3174   3175 1
  3175   3174   3176 1
  3176   3174   3186 1
  3177   3176   3177 1
  3178   3177   3178 1
  3179   3177   3179 1
  3180   3177   3180 1
  3181   3180   3181 1
  3182   3180   3182 1
  3183   3180   3184 1
  3184   3182   3183 1
  3185   3184   3185 1
  3186   3184   3186 1
  3187   3184   3190 1
  3188   3186   3187 1
  3189   3186   3188 1
  3190   3188   3189 1
  3191   3191   3192 1
  3192   3191   3193 1
  3193   3191   3208 1
  3194   3193   3194 1
  3195   3193   3195 1
  3196   3193   3197 1
  3197   3195   3196 1
  3198   3197   3198 1
  3199   3197   3199 1
  3200   3197   3211 1
  3201   3199   3200 1
  3202   3199   3201 1
  3203   3199   3209 1
  3204   3201   3202 1
  3205   3201   3203 1
  3206   3201   3208 1
  3207   3203   3204 1
  3208   3203   3205 1
  3209   3203   3206 1
  3210   3206   3207 1
  3211   3209   3210 1
  3212   3212   3213 1
  3213   3212   3214 1
  3214   3212   3228 1
  3215   3214   3215 1
  3216   3215   3216 1
  3217   3215   3217 1
  3218   3215   3222 1
  3219   3217   3218 1
  3220   3217   3219 1
  3221   3217   3220 1
  3222   3220   3221 1
  3223   3222   3223 1
  3224   3222   3224 1
  3225   3222   3226 1
  3226   3224   3225 1
  3227   3226   3227 1
  3228   3226   3228 1
  3229   3226   3232 1
  3230   3228   3229 1
  3231   3228   3230 1
  3232   3230   3231 1
  3233   3233   3234 1
  3234   3233   3235 1
  3235   3233   3249 1
  3236   3235   3236 1
  3237   3235   3237 1
  3238   3235   3239 1
  3239   3237   3238 1
  3240   3239   3240 1
  3241   3239   3241 1
  3242   3239   3252 1
  3243   3241   3242 1
  3244   3241   3243 1
  3245   3241   3250 1
  3246   3243   3244 1
  3247   3243   3245 1
  3248   3243   3249 1
  3249   3245   3246 1
  3250   3245   3247 1
  3251   3245   3248 1
  3252   3250   3251 1
  3253   3253   3254 1
  3254   3253   3255 1
  3255   3253   3268 1
  3256   3255   3256 1
  3257   3256   3257 1
  3258   3256   3258 1
  3259   3256   3262 1
  3260   3258   3259 1
  3261   3258   3260 1
  3262   3258   3261 1
  3263   3262   3263 1
  3264   3262   3264 1
  3265   3262   3266 1
  3266   3264   3265 1
  3267   3266   3267 1
  3268   3266   3268 1
  3269   3266   3272 1
  3270   3268   3269 1
  3271   3268   3270 1
  3272   3270   3271 1
  3273   3273   3274 1
  3274   3273   3275 1
  3275   3273   3290 1
  3276   3275   3276 1
  3277   3275   3277 1
  3278   3275   3279 1
  3279   3277   3278 1
  3280   3279   3280 1
  3281   3279   3281 1
  3282   3279   3293 1
  3283   3281   3282 1
  3284   3281   3283 1
  3285   3281   3291 1
  3286   3283   3284 1
  3287   3283   3285 1
  3288   3283   3290 1
  3289   3285   3286 1
  3290   3285   3287 1
  3291   3285   3288 1
  3292   3288   3289 1
  3293   3291   3292 1
  3294   3294   3295 1
  3295   3294   3296 1
  3296   3294   3310 1
  3297   3296   3297 1
  3298   3297   3298 1
  3299   3297   3299 1
  3300   3297   3304 1
  3301   3299   3300 1
  3302   3299   3301 1
  3303   3299   3302 1
  3304   3302   3303 1
  3305   3304   3305 1
  3306   3304   3306 1
  3307   3304   3308 1
  3308   3306   3307 1
  3309   3308   3309 1
  3310   3308   3310 1
  3311   3308   3314 1
  3312   3310   3311 1
  3313   3310   3312 1
  3314   3312   3313 1
  3315   3315   3316 1
  3316   3315   3317 1
  3317   3315   3331 1
  3318   3317   3318 1
  3319   3317   3319 1
  3320   3317   3321 1
  3321   3319   3320 1
  3322   3321   3322 1
  3323   3321   3323 1
  3324   3321   3334 1
  3325   3323   3324 1
  3326   3323   3325 1
  3327   3323   3332 1
  3328   3325   3326 1
  3329   3325   3327 1
  3330   3325   3331 1
  3331   3327   3328 1
  3332   3327   3329 1
  3333   3327   3330 1
  3334   3332   3333 1
  3335   3335   3336 1
  3336   3335   3337 1
  3337   3335   3350 1
  3338   3337   3338 1
  3339   3338   3339 1
  3340   3338   3340 1
  3341   3338   3344 1
  3342   3340   3341 1
  3343   3340   3342 1
  3344   3340   3343 1
  3345   3344   3345 1
  3346   3344   3346 1
  3347   3344   3348 1
  3348   3346   3347 1
  3349   3348   3349 1
  3350   3348   3350 1
  3351   3348   3354 1
  3352   3350   3351 1
  3353   3350   3352 1
  3354   3352   3353 1
  3355   3355   3356 1
  3356   3355   3361 1
  3357   3355   3370 1
  3358   3356   3357 1
  3359   3356   3358 1
  3360   3356   3359 1
  3361   3359   3360 1
  3362   3361   3362 1
  3363   3361   3363 1
  3364   3361   3375 1
  3365   3363   3364 1
  3366   3363   3365 1
  3367   3363   3373 1
  3368   3365   3366 1
  3369   3365   3367 1
  3370   3365   3371 1
  3371   3367   3368 1
  3372   3367   3369 1
  3373   3367   3370 1
  3374   3371   3372 1
  3375   3373   3374 1
  3376   3376   3377 1
  3377   3376   3382 1
  3378   3376   3394 1
  3379   3377   3378 1
  3380   3377   3379 1
  3381   3377   3380 1
  3382   3380   3381 1
  3383   3382   3383 1
  3384   3383   3384 1
  3385   3383   3385 1
  3386   3383   3386 1
  3387   3386   3387 1
  3388   3386   3388 1
  3389   3386   3390 1
  3390   3388   3389 1
  3391   3390   3391 1
  3392   3390   3392 1
  3393   3390   3394 1
  3394   3392   3393 1
  3395   3394   3395 1
  3396   3394   3396 1
  3397   3397   3398 1
  3398   3397   3399 1
  3399   3397   3414 1
  3400   3399   3400 1
  3401   3399   3401 1
  3402   3399   3403 1
  3403   3401   3402 1
  3404   3403   3404 1
  3405   3403   3405 1
  3406   3403   3417 1
  3407   3405   3406 1
  3408   3405   3407 1
  3409   3405   3415 1
  3410   3407   3408 1
  3411   3407   3409 1
  3412   3407   3414 1
  3413   3409   3410 1
  3414   3409   3411 1
  3415   3409   3412 1
  3416   3412   3413 1
  3417   3415   3416 1
  3418   3418   3419 1
  3419   3418   3420 1
  3420   3418   3434 1
  3421   3420   3421 1
  3422   3421   3422 1
  3423   3421   3423 1
  3424   3421   3428 1
  3425   3423   3424 1
  3426   3423   3425 1
  3427   3423   3426 1
  3428   3426   3427 1
  3429   3428   3429 1
  3430   3428   3430 1
  3431   3428   3432 1
  3432   3430   3431 1
  3433   3432   3433 1
  3434   3432   3434 1
  3435   3432   3438 1
  3436   3434   3435 1
  3437   3434   3436 1
  3438   3436   3437 1
  3439   3439   3440 1
  3440   3439   3441 1
  3441   3439   3456 1
  3442   3441   3442 1
  3443   3441   3443 1
  3444   3441   3445 1
  3445   3443   3444 1
  3446   3445   3446 1
  3447   3445   3447 1
  3448   3445   3459 1
  3449   3447   3448 1
  3450   3447   3449 1
  3451   3447   3457 1
  3452   3449   3450 1
  3453   3449   3451 1
  3454   3449   3456 1
  3455   3451   3452 1
  3456   3451   3453 1
  3457   3451   3454 1
  3458   3454   3455 1
  3459   3457   3458 1
  3460   3460   3461 1
  3461   3460   3462 1
  3462   3460   3476 1
  3463   3462   3463 1
  3464   3463   3464 1
  3465   3463   3465 1
  3466   3463   3470 1
  3467   3465   3466 1
  3468   3465   3467 1
  3469   3465   3468 1
  3470   3468   3469 1
  3471   3470   3471 1
  3472   3470   3472 1
  3473   3470   3474 1
  3474   3472   3473 1
  3475   3474   3475 1
  3476   3474   3476 1
  3477   3474   3480 1
  3478   3476   3477 1
  3479   3476   3478 1
  3480   3478   3479 1
  3481   3481   3482 1
  3482   3481   3483 1
  3483   3481   3498 1
  3484   3483   3484 1
  3485   3483   3485 1
  3486   3483   3487 1
  3487   3485   3486 1
  3488   3487   3488 1
  3489   3487   3489 1
  3490   3487   3501 1
  3491   3489   3490 1
  3492   3489   3491 1
  3493   3489   3499 1
  3494   3491   3492 1
  3495   3491   3493 1
  3496   3491   3498 1
  3497   3493   3494 1
  3498   3493   3495 1
  3499   3493   3496 1
  3500   3496   3497 1
  3501   3499   3500 1
  3502   3502   3503 1
  3503   3502   3504 1
  3504   3502   3518 1
  3505   3504   3505 1
  3506   3505   3506 1
  3507   3505   3507 1
  3508   3505   3512 1
  3509   3507   3508 1
  3510   3507   3509 1
  3511   3507   3510 1
  3512   3510   3511 1
  3513   3512   3513 1
  3514   3512   3514 1
  3515   3512   3516 1
  3516   3514   3515 1
  3517   3516   3517 1
  3518   3516   3518 1
  3519   3516   3522 1
  3520   3518   3519 1
  3521   3518   3520 1
  3522   3520   3521 1
  3523   3523   3524 1
  3524   3523   3525 1
  3525   3523   3540 1
  3526   3525   3526 1
  3527   3525   3527 1
  3528   3525   3529 1
  3529   3527   3528 1
  3530   3529   3530 1
  3531   3529   3531 1
  3532   3529   3543 1
  3533   3531   3532 1
  3534   3531   3533 1
  3535   3531   3541 1
  3536   3533   3534 1
  3537   3533   3535 1
  3538   3533   3540 1
  3539   3535   3536 1
  3540   3535   3537 1
  3541   3535   3538 1
  3542   3538   3539 1
  3543   3541   3542 1
  3544   3544   3545 1
  3545   3544   3546 1
  3546   3544   3560 1
  3547   3546   3547 1
  3548   3547   3548 1
  3549   3547   3549 1
  3550   3547   3554 1
  3551   3549   3550 1
  3552   3549   3551 1
  3553   3549   3552 1
  3554   3552   3553 1
  3555   3554   3555 1
  3556   3554   3556 1
  3557   3554   3558 1
  3558   3556   3557 1
  3559   3558   3559 1
  3560   3558   3560 1
  3561   3558   3564 1
  3562   3560   3561 1
  3563   3560   3562 1
  3564   3562   3563 1
  3565   3565   3566 1
  3566   3565   3567 1
  3567   3565   3580 1
  3568   3567   3568 1
  3569   3567   3569 1
  3570   3567   3571 1
  3571   3569   3570 1
  3572   3571   3572 1
  3573   3571   3573 1
  3574   3571   3583 1
  3575   3573   3574 1
  3576   3573   3575 1
  3577   3573   3581 1
  3578   3575   3576 1
  3579   3575   3577 1
  3580   3575   3580 1
  3581   3577   3578 1
  3582   3577   3579 1
  3583   3581   3582 1
  3584   3584   3585 1
  3585   3584   3586 1
  3586   3584   3598 1
  3587   3586   3587 1
  3588   3587   3588 1
  3589   3587   3589 1
  3590   3587   3592 1
  3591   3589   3590 1
  3592   3589   3591 1
  3593   3592   3593 1
  3594   3592   3594 1
  3595   3592   3596 1
  3596   3594   3595 1
  3597   3596   3597 1
  3598   3596   3598 1
  3599   3596   3602 1
  3600   3598   3599 1
  3601   3598   3600 1
  3602   3600   3601 1
  3603   3603   3604 1
  3604   3603   3609 1
  3605   3603   3618 1
  3606   3604   3605 1
  3607   3604   3606 1
  3608   3604   3607 1
  3609   3607   3608 1
  3610   3609   3610 1
  3611   3609   3611 1
  3612   3609   3623 1
  3613   3611   3612 1
  3614   3611   3613 1
  3615   3611   3621 1
  3616   3613   3614 1
  3617   3613   3615 1
  3618   3613   3619 1
  3619   3615   3616 1
  3620   3615   3617 1
  3621   3615   3618 1
  3622   3619   3620 1
  3623   3621   3622 1
  3624   3624   3625 1
  3625   3624   3630 1
  3626   3624   3642 1
  3627   3625   3626 1
  3628   3625   3627 1
  3629   3625   3628 1
  3630   3628   3629 1
  3631   3630   3631 1
  3632   3631   3632 1
  3633   3631   3633 1
  3634   3631   3634 1
  3635   3634   3635 1
  3636   3634   3636 1
  3637   3634   3638 1
  3638   3636   3637 1
  3639   3638   3639 1
  3640   3638   3640 1
  3641   3638   3642 1
  3642   3640   3641 1
  3643   3642   3643 1
  3644   3642   3644 1
  3645   3645   3646 1
  3646   3645   3647 1
  3647   3645   3661 1
  3648   3647   3648 1
  3649   3647   3649 1
  3650   3647   3651 1
  3651   3649   3650 1
  3652   3651   3652 1
  3653   3651   3653 1
  3654   3651   3664 1
  3655   3653   3654 1
  3656   3653   3655 1
  3657   3653   3662 1
  3658   3655   3656 1
  3659   3655   3657 1
  3660   3655   3661 1
  3661   3657   3658 1
  3662   3657   3659 1
  3663   3657   3660 1
  3664   3662   3663 1
  3665   3665   3666 1
  3666   3665   3667 1
  3667   3665   3680 1
  3668   3667   3668 1
  3669   3668   3669 1
  3670   3668   3670 1
  3671   3668   3674 1
  3672   3670   3671 1
  3673   3670   3672 1
  3674   3670   3673 1
  3675   3674   3675 1
  3676   3674   3676 1
  3677   3674   3678 1
  3678   3676   3677 1
  3679   3678   3679 1
  3680   3678   3680 1
  3681   3678   3684 1
  3682   3680   3681 1
  3683   3680   3682 1
  3684   3682   3683 1
  3685   3685   3686 1
  3686   3685   3687 1
  3687   3685   3698 1
  3688   3687   3688 1
  3689   3687   3689 1
  3690   3687   3691 1
  3691   3689   3690 1
  3692   3691   3692 1
  3693   3691   3693 1
  3694   3691   3701 1
  3695   3693   3694 1
  3696   3693   3695 1
  3697   3693   3699 1
  3698   3695   3696 1
  3699   3695   3697 1
  3700   3695   3698 1
  3701   3699   3700 1
  3702   3702   3703 1
  3703   3702   3704 1
  3704   3702   3714 1
  3705   3704   3705 1
  3706   3705   3706 1
  3707   3705   3707 1
  3708   3705   3708 1
  3709   3708   3709 1
  3710   3708   3710 1
  3711   3708   3712 1
  3712   3710   3711 1
  3713   3712   3713 1
  3714   3712   3714 1
  3715   3712   3718 1
  3716   3714   3715 1
  3717   3714   3716 1
  3718   3716   3717 1
  3719   3719   3720 1
  3720   3719   3721 1
  3721   3719   3736 1
  3722   3721   3722 1
  3723   3721   3723 1
  3724   3721   3725 1
  3725   3723   3724 1
  3726   3725   3726 1
  3727   3725   3727 1
  3728   3725   3739 1
  3729   3727   3728 1
  3730   3727   3729 1
  3731   3727   3737 1
  3732   3729   3730 1
  3733   3729   3731 1
  3734   3729   3736 1
  3735   3731   3732 1
  3736   3731   3733 1
  3737   3731   3734 1
  3738   3734   3735 1
  3739   3737   3738 1
  3740   3740   3741 1
  3741   3740   3742 1
  3742   3740   3756 1
  3743   3742   3743 1
  3744   3743   3744 1
  3745   3743   3745 1
  3746   3743   3750 1
  3747   3745   3746 1
  3748   3745   3747 1
  3749   3745   3748 1
  3750   3748   3749 1
  3751   3750   3751 1
  3752   3750   3752 1
  3753   3750   3754 1
  3754   3752   3753 1
  3755   3754   3755 1
  3756   3754   3756 1
  3757   3754   3760 1
  3758   3756   3757 1
  3759   3756   3758 1
  3760   3758   3759 1
  3761   3761   3762 1
  3762   3761   3763 1
  3763   3761   3776 1
  3764   3763   3764 1
  3765   3763   3765 1
  3766   3763   3767 1
  3767   3765   3766 1
  3768   3767   3768 1
  3769   3767   3769 1
  3770   3767   3779 1
  3771   3769   3770 1
  3772   3769   3771 1
  3773   3769   3777 1
  3774   3771   3772 1
  3775   3771   3773 1
  3776   3771   3776 1
  3777   3773   3774 1
  3778   3773   3775 1
  3779   3777   3778 1
  3780   3780   3781 1
  3781   3780   3782 1
  3782   3780   3794 1
  3783   3782   3783 1
  3784   3783   3784 1
  3785   3783   3785 1
  3786   3783   3788 1
  3787   3785   3786 1
  3788   3785   3787 1
  3789   3788   3789 1
  3790   3788   3790 1
  3791   3788   3792 1
  3792   3790   3791 1
  3793   3792   3793 1
  3794   3792   3794 1
  3795   3792   3798 1
  3796   3794   3795 1
  3797   3794   3796 1
  3798   3796   3797 1
  3799   3799   3800 1
  3800   3799   3801 1
  3801   3799   3822 1
  3802   3801   3802 1
  3803   3801   3803 1
  3804   3801   3811 1
  3805   3803   3804 1
  3806   3803   3805 1
  3807   3805   3806 1
  3808   3805   3810 1
  3809   3806   3807 1
  3810   3806   3808 1
  3811   3806   3809 1
  3812   3811   3812 1
  3813   3811   3813 1
  3814   3811   3825 1
  3815   3813   3814 1
  3816   3813   3815 1
  3817   3813   3823 1
  3818   3815   3816 1
  3819   3815   3817 1
  3820   3815   3822 1
  3821   3817   3818 1
  3822   3817   3819 1
  3823   3817   3820 1
  3824   3820   3821 1
  3825   3823   3824 1
  3826   3826   3827 1
  3827   3826   3828 1
  3828   3826   3842 1
  3829   3828   3829 1
  3830   3829   3830 1
  3831   3829   3831 1
  3832   3829   3836 1
  3833   3831   3832 1
  3834   3831   3833 1
  3835   3831   3834 1
  3836   3834   3835 1
  3837   3836   3837 1
  3838   3836   3838 1
  3839   3836   3840 1
  3840   3838   3839 1
  3841   3840   3841 1
  3842   3840   3842 1
  3843   3840   3852 1
  3844   3842   3843 1
  3845   3842   3844 1
  3846   3844   3845 1
  3847   3844   3846 1
  3848   3846   3847 1
  3849   3846   3848 1
  3850   3848   3849 1
  3851   3848   3850 1
  3852   3848   3851 1
  3853   3853   3854 1
  3854   3853   3855 1
  3855   3853   3876 1
  3856   3855   3856 1
  3857   3855   3857 1
  3858   3855   3865 1
  3859   3857   3858 1
  3860   3857   3859 1
  3861   3859   3860 1
  3862   3859   3864 1
  3863   3860   3861 1
  3864   3860   3862 1
  3865   3860   3863 1
  3866   3865   3866 1
  3867   3865   3867 1
  3868   3865   3879 1
  3869   3867   3868 1
  3870   3867   3869 1
  3871   3867   3877 1
  3872   3869   3870 1
  3873   3869   3871 1
  3874   3869   3876 1
  3875   3871   3872 1
  3876   3871   3873 1
  3877   3871   3874 1
  3878   3874   3875 1
  3879   3877   3878 1
  3880   3880   3881 1
  3881   3880   3882 1
  3882   3880   3896 1
  3883   3882   3883 1
  3884   3883   3884 1
  3885   3883   3885 1
  3886   3883   3890 1
  3887   3885   3886 1
  3888   3885   3887 1
  3889   3885   3888 1
  3890   3888   3889 1
  3891   3890   3891 1
  3892   3890   3892 1
  3893   3890   3894 1
  3894   3892   3893 1
  3895   3894   3895 1
  3896   3894   3896 1
  3897   3894   3906 1
  3898   3896   3897 1
  3899   3896   3898 1
  3900   3898   3899 1
  3901   3898   3900 1
  3902   3900   3901 1
  3903   3900   3902 1
  3904   3902   3903 1
  3905   3902   3904 1
  3906   3902   3905 1
  3907   3907   3908 1
  3908   3907   3909 1
  3909   3907   3920 1
  3910   3909   3910 1
  3911   3909   3911 1
  3912   3909   3913 1
  3913   3911   3912 1
  3914   3913   3914 1
  3915   3913   3915 1
  3916   3913   3923 1
  3917   3915   3916 1
  3918   3915   3917 1
  3919   3915   3921 1
  3920   3917   3918 1
  3921   3917   3919 1
  3922   3917   3920 1
  3923   3921   3922 1
  3924   3924   3925 1
  3925   3924   3926 1
  3926   3924   3936 1
  3927   3926   3927 1
  3928   3927   3928 1
  3929   3927   3929 1
  3930   3927   3930 1
  3931   3930   3931 1
  3932   3930   3932 1
  3933   3930   3934 1
  3934   3932   3933 1
  3935   3934   3935 1
  3936   3934   3936 1
  3937   3934   3940 1
  3938   3936   3937 1
  3939   3936   3938 1
  3940   3938   3939 1
  3941   3941   3942 1
  3942   3941   3943 1
  3943   3941   3964 1
  3944   3943   3944 1
  3945   3943   3945 1
  3946   3943   3953 1
  3947   3945   3946 1
  3948   3945   3947 1
  3949   3947   3948 1
  3950   3947   3952 1
  3951   3948   3949 1
  3952   3948   3950 1
  3953   3948   3951 1
  3954   3953   3954 1
  3955   3953   3955 1
  3956   3953   3967 1
  3957   3955   3956 1
  3958   3955   3957 1
  3959   3955   3965 1
  3960   3957   3958 1
  3961   3957   3959 1
  3962   3957   3964 1
  3963   3959   3960 1
  3964   3959   3961 1
  3965   3959   3962 1
  3966   3962   3963 1
  3967   3965   3966 1
  3968   3968   3969 1
  3969   3968   3970 1
  3970   3968   3984 1
  3971   3970   3971 1
  3972   3971   3972 1
  3973   3971   3973 1
  3974   3971   3978 1
  3975   3973   3974 1
  3976   3973   3975 1
  3977   3973   3976 1
  3978   3976   3977 1
  3979   3978   3979 1
  3980   3978   3980 1
  3981   3978   3982 1
  3982   3980   3981 1
  3983   3982   3983 1
  3984   3982   3984 1
  3985   3982   3994 1
  3986   3984   3985 1
  3987   3984   3986 1
  3988   3986   3987 1
  3989   3986   3988 1
  3990   3988   3989 1
  3991   3988   3990 1
  3992   3990   3991 1
  3993   3990   3992 1
  3994   3990   3993 1
  3995   3995   3996 1
  3996   3995   3997 1
  3997   3995   4010 1
  3998   3997   3998 1
  3999   3997   3999 1
  4000   3997   4001 1
  4001   3999   4000 1
  4002   4001   4002 1
  4003   4001   4003 1
  4004   4001   4013 1
  4005   4003   4004 1
  4006   4003   4005 1
  4007   4003   4011 1
  4008   4005   4006 1
  4009   4005   4007 1
  4010   4005   4010 1
  4011   4007   4008 1
  4012   4007   4009 1
  4013   4011   4012 1
  4014   4014   4015 1
  4015   4014   4016 1
  4016   4014   4028 1
  4017   4016   4017 1
  4018   4017   4018 1
  4019   4017   4019 1
  4020   4017   4022 1
  4021   4019   4020 1
  4022   4019   4021 1
  4023   4022   4023 1
  4024   4022   4024 1
  4025   4022   4026 1
  4026   4024   4025 1
  4027   4026   4027 1
  4028   4026   4028 1
  4029   4026   4032 1
  4030   4028   4029 1
  4031   4028   4030 1
  4032   4030   4031 1
  4033   4033   4034 1
  4034   4033   4035 1
  4035   4033   4048 1
  4036   4035   4036 1
  4037   4035   4037 1
  4038   4035   4039 1
  4039   4037   4038 1
  4040   4039   4040 1
  4041   4039   4041 1
  4042   4039   4043 1
  4043   4041   4042 1
  4044   4043   4044 1
  4045   4043   4045 1
  4046   4043   4049 1
  4047   4045   4046 1
  4048   4045   4047 1
  4049   4045   4048 1
  4050   4050   4051 1
  4051   4050   4052 1
  4052   4050   4062 1
  4053   4052   4053 1
  4054   4053   4054 1
  4055   4053   4055 1
  4056   4053   4056 1
  4057   4056   4057 1
  4058   4056   4058 1
  4059   4056   4066 1
  4060   4058   4059 1
  4061   4058   4060 1
  4062   4058   4062 1
  4063   4060   4061 1
  4064   4062   4063 1
  4065   4062   4064 1
  4066   4064   4065 1
  4067   4067   4068 1
  4068   4067   4073 1
  4069   4067   4084 1
  4070   4068   4069 1
  4071   4068   4070 1
  4072   4068   4071 1
  4073   4071   4072 1
  4074   4073   4074 1
  4075   4073   4075 1
  4076   4073   4077 1
  4077   4075   4076 1
  4078   4077   4078 1
  4079   4077   4079 1
  4080   4077   4087 1
  4081   4079   4080 1
  4082   4079   4081 1
  4083   4079   4085 1
  4084   4081   4082 1
  4085   4081   4083 1
  4086   4081   4084 1
  4087   4085   4086 1
  4088   4088   4089 1
  4089   4088   4094 1
  4090   4088   4104 1
  4091   4089   4090 1
  4092   4089   4091 1
  4093   4089   4092 1
  4094   4092   4093 1
  4095   4094   4095 1
  4096   4095   4096 1
  4097   4095   4097 1
  4098   4095   4098 1
  4099   4098   4099 1
  4100   4098   4100 1
  4101   4098   4102 1
  4102   4100   4101 1
  4103   4102   4103 1
  4104   4102   4104 1
  4105   4102   4108 1
  4106   4104   4105 1
  4107   4104   4106 1
  4108   4106   4107 1
  4109   4109   4110 1
  4110   4109   4115 1
  4111   4109   4126 1
  4112   4110   4111 1
  4113   4110   4112 1
  4114   4110   4113 1
  4115   4113   4114 1
  4116   4115   4116 1
  4117   4115   4117 1
  4118   4115   4119 1
  4119   4117   4118 1
  4120   4119   4120 1
  4121   4119   4121 1
  4122   4119   4129 1
  4123   4121   4122 1
  4124   4121   4123 1
  4125   4121   4127 1
  4126   4123   4124 1
  4127   4123   4125 1
  4128   4123   4126 1
  4129   4127   4128 1
  4130   4130   4131 1
  4131   4130   4136 1
  4132   4130   4146 1
  4133   4131   4132 1
  4134   4131   4133 1
  4135   4131   4134 1
  4136   4134   4135 1
  4137   4136   4137 1
  4138   4137   4138 1
  4139   4137   4139 1
  4140   4137   4140 1
  4141   4140   4141 1
  4142   4140   4142 1
  4143   4140   4144 1
  4144   4142   4143 1
  4145   4144   4145 1
  4146   4144   4146 1
  4147   4144   4150 1
  4148   4146   4147 1
  4149   4146   4148 1
  4150   4148   4149 1
  4151   4151   4152 1
  4152   4151   4153 1
  4153   4151   4166 1
  4154   4153   4154 1
  4155   4153   4155 1
  4156   4153   4157 1
  4157   4155   4156 1
  4158   4157   4158 1
  4159   4157   4159 1
  4160   4157   4161 1
  4161   4159   4160 1
  4162   4161   4162 1
  4163   4161   4163 1
  4164   4161   4167 1
  4165   4163   4164 1
  4166   4163   4165 1
  4167   4163   4166 1
  4168   4168   4169 1
  4169   4168   4170 1
  4170   4168   4180 1
  4171   4170   4171 1
  4172   4171   4172 1
  4173   4171   4173 1
  4174   4171   4174 1
  4175   4174   4175 1
  4176   4174   4176 1
  4177   4174   4184 1
  4178   4176   4177 1
  4179   4176   4178 1
  4180   4176   4180 1
  4181   4178   4179 1
  4182   4180   4181 1
  4183   4180   4182 1
  4184   4182   4183 1
  4185   4185   4186 1
  4186   4185   4187 1
  4187   4185   4204 1
  4188   4187   4188 1
  4189   4187   4189 1
  4190   4187   4191 1
  4191   4189   4190 1
  4192   4191   4192 1
  4193   4191   4193 1
  4194   4191   4195 1
  4195   4193   4194 1
  4196   4195   4196 1
  4197   4195   4197 1
  4198   4195   4205 1
  4199   4197   4198 1
  4200   4197   4199 1
  4201   4197   4204 1
  4202   4199   4200 1
  4203   4199   4201 1
  4204   4199   4202 1
  4205   4202   4203 1
  4206   4206   4207 1
  4207   4206   4208 1
  4208   4206   4222 1
  4209   4208   4209 1
  4210   4209   4210 1
  4211   4209   4211 1
  4212   4209   4216 1
  4213   4211   4212 1
  4214   4211   4213 1
  4215   4211   4214 1
  4216   4214   4215 1
  4217   4216   4217 1
  4218   4216   4218 1
  4219   4216   4226 1
  4220   4218   4219 1
  4221   4218   4220 1
  4222   4218   4222 1
  4223   4220   4221 1
  4224   4222   4223 1
  4225   4222   4224 1
  4226   4224   4225 1
  4227   4227   4228 1
  4228   4227   4229 1
  4229   4227   4245 1
  4230   4229   4230 1
  4231   4229   4231 1
  4232   4229   4233 1
  4233   4231   4232 1
  4234   4233   4234 1
  4235   4233   4235 1
  4236   4233   4237 1
  4237   4235   4236 1
  4238   4237   4238 1
  4239   4237   4239 1
  4240   4237   4246 1
  4241   4239   4240 1
  4242   4239   4241 1
  4243   4239   4245 1
  4244   4241   4242 1
  4245   4241   4243 1
  4246   4241   4244 1
  4247   4247   4248 1
  4248   4247   4249 1
  4249   4247   4262 1
  4250   4249   4250 1
  4251   4250   4251 1
  4252   4250   4252 1
  4253   4250   4256 1
  4254   4252   4253 1
  4255   4252   4254 1
  4256   4252   4255 1
  4257   4256   4257 1
  4258   4256   4258 1
  4259   4256   4266 1
  4260   4258   4259 1
  4261   4258   4260 1
  4262   4258   4262 1
  4263   4260   4261 1
  4264   4262   4263 1
  4265   4262   4264 1
  4266   4264   4265 1
  4267   4267   4268 1
  4268   4267   4269 1
  4269   4267   4286 1
  4270   4269   4270 1
  4271   4269   4271 1
  4272   4269   4273 1
  4273   4271   4272 1
  4274   4273   4274 1
  4275   4273   4275 1
  4276   4273   4277 1
  4277   4275   4276 1
  4278   4277   4278 1
  4279   4277   4279 1
  4280   4277   4287 1
  4281   4279   4280 1
  4282   4279   4281 1
  4283   4279   4286 1
  4284   4281   4282 1
  4285   4281   4283 1
  4286   4281   4284 1
  4287   4284   4285 1
  4288   4288   4289 1
  4289   4288   4290 1
  4290   4288   4304 1
  4291   4290   4291 1
  4292   4291   4292 1
  4293   4291   4293 1
  4294   4291   4298 1
  4295   4293   4294 1
  4296   4293   4295 1
  4297   4293   4296 1
  4298   4296   4297 1
  4299   4298   4299 1
  4300   4298   4300 1
  4301   4298   4308 1
  4302   4300   4301 1
  4303   4300   4302 1
  4304   4300   4304 1
  4305   4302   4303 1
  4306   4304   4305 1
  4307   4304   4306 1
  4308   4306   4307 1
  4309   4309   4310 1
  4310   4309   4311 1
  4311   4309   4327 1
  4312   4311   4312 1
  4313   4311   4313 1
  4314   4311   4315 1
  4315   4313   4314 1
  4316   4315   4316 1
  4317   4315   4317 1
  4318   4315   4319 1
  4319   4317   4318 1
  4320   4319   4320 1
  4321   4319   4321 1
  4322   4319   4328 1
  4323   4321   4322 1
  4324   4321   4323 1
  4325   4321   4327 1
  4326   4323   4324 1
  4327   4323   4325 1
  4328   4323   4326 1
  4329   4329   4330 1
  4330   4329   4331 1
  4331   4329   4344 1
  4332   4331   4332 1
  4333   4332   4333 1
  4334   4332   4334 1
  4335   4332   4338 1
  4336   4334   4335 1
  4337   4334   4336 1
  4338   4334   4337 1
  4339   4338   4339 1
  4340   4338   4340 1
  4341   4338   4348 1
  4342   4340   4341 1
  4343   4340   4342 1
  4344   4340   4344 1
  4345   4342   4343 1
  4346   4344   4345 1
  4347   4344   4346 1
  4348   4346   4347 1
  4349   4349   4350 1
  4350   4349   4355 1
  4351   4349   4366 1
  4352   4350   4351 1
  4353   4350   4352 1
  4354   4350   4353 1
  4355   4353   4354 1
  4356   4355   4356 1
  4357   4355   4357 1
  4358   4355   4359 1
  4359   4357   4358 1
  4360   4359   4360 1
  4361   4359   4361 1
  4362   4359   4369 1
  4363   4361   4362 1
  4364   4361   4363 1
  4365   4361   4367 1
  4366   4363   4364 1
  4367   4363   4365 1
  4368   4363   4366 1
  4369   4367   4368 1
  4370   4370   4371 1
  4371   4370   4376 1
  4372   4370   4386 1
  4373   4371   4372 1
  4374   4371   4373 1
  4375   4371   4374 1
  4376   4374   4375 1
  4377   4376   4377 1
  4378   4377   4378 1
  4379   4377   4379 1
  4380   4377   4380 1
  4381   4380   4381 1
  4382   4380   4382 1
  4383   4380   4384 1
  4384   4382   4383 1
  4385   4384   4385 1
  4386   4384   4386 1
  4387   4384   4390 1
  4388   4386   4387 1
  4389   4386   4388 1
  4390   4388   4389 1
  4391   4391   4392 1
  4392   4391   4393 1
  4393   4391   4410 1
  4394   4393   4394 1
  4395   4393   4395 1
  4396   4393   4397 1
  4397   4395   4396 1
  4398   4397   4398 1
  4399   4397   4399 1
  4400   4397   4401 1
  4401   4399   4400 1
  4402   4401   4402 1
  4403   4401   4403 1
  4404   4401   4411 1
  4405   4403   4404 1
  4406   4403   4405 1
  4407   4403   4410 1
  4408   4405   4406 1
  4409   4405   4407 1
  4410   4405   4408 1
  4411   4408   4409 1
  4412   4412   4413 1
  4413   4412   4414 1
  4414   4412   4428 1
  4415   4414   4415 1
  4416   4415   4416 1
  4417   4415   4417 1
  4418   4415   4422 1
  4419   4417   4418 1
  4420   4417   4419 1
  4421   4417   4420 1
  4422   4420   4421 1
  4423   4422   4423 1
  4424   4422   4424 1
  4425   4422   4432 1
  4426   4424   4425 1
  4427   4424   4426 1
  4428   4424   4428 1
  4429   4426   4427 1
  4430   4428   4429 1
  4431   4428   4430 1
  4432   4430   4431 1
  4433   4433   4434 1
  4434   4433   4435 1
  4435   4433   4452 1
  4436   4435   4436 1
  4437   4435   4437 1
  4438   4435   4439 1
  4439   4437   4438 1
  4440   4439   4440 1
  4441   4439   4441 1
  4442   4439   4443 1
  4443   4441   4442 1
  4444   4443   4444 1
  4445   4443   4445 1
  4446   4443   4453 1
  4447   4445   4446 1
  4448   4445   4447 1
  4449   4445   4452 1
  4450   4447   4448 1
  4451   4447   4449 1
  4452   4447   4450 1
  4453   4450   4451 1
  4454   4454   4455 1
  4455   4454   4456 1
  4456   4454   4470 1
  4457   4456   4457 1
  4458   4457   4458 1
  4459   4457   4459 1
  4460   4457   4464 1
  4461   4459   4460 1
  4462   4459   4461 1
  4463   4459   4462 1
  4464   4462   4463 1
  4465   4464   4465 1
  4466   4464   4466 1
  4467   4464   4474 1
  4468   4466   4467 1
  4469   4466   4468 1
  4470   4466   4470 1
  4471   4468   4469 1
  4472   4470   4471 1
  4473   4470   4472 1
  4474   4472   4473 1
  4475   4475   4476 1
  4476   4475   4477 1
  4477   4475   4494 1
  4478   4477   4478 1
  4479   4477   4479 1
  4480   4477   4481 1
  4481   4479   4480 1
  4482   4481   4482 1
  4483   4481   4483 1
  4484   4481   4485 1
  4485   4483   4484 1
  4486   4485   4486 1
  4487   4485   4487 1
  4488   4485   4495 1
  4489   4487   4488 1
  4490   4487   4489 1
  4491   4487   4494 1
  4492   4489   4490 1
  4493   4489   4491 1
  4494   4489   4492 1
  4495   4492   4493 1
  4496   4496   4497 1
  4497   4496   4498 1
  4498   4496   4512 1
  4499   4498   4499 1
  4500   4499   4500 1
  4501   4499   4501 1
  4502   4499   4506 1
  4503   4501   4502 1
  4504   4501   4503 1
  4505   4501   4504 1
  4506   4504   4505 1
  4507   4506   4507 1
  4508   4506   4508 1
  4509   4506   4516 1
  4510   4508   4509 1
  4511   4508   4510 1
  4512   4508   4512 1
  4513   4510   4511 1
  4514   4512   4513 1
  4515   4512   4514 1
  4516   4514   4515 1
  4517   4517   4518 1
  4518   4517   4519 1
  4519   4517   4536 1
  4520   4519   4520 1
  4521   4519   4521 1
  4522   4519   4523 1
  4523   4521   4522 1
  4524   4523   4524 1
  4525   4523   4525 1
  4526   4523   4527 1
  4527   4525   4526 1
  4528   4527   4528 1
  4529   4527   4529 1
  4530   4527   4537 1
  4531   4529   4530 1
  4532   4529   4531 1
  4533   4529   4536 1
  4534   4531   4532 1
  4535   4531   4533 1
  4536   4531   4534 1
  4537   4534   4535 1
  4538   4538   4539 1
  4539   4538   4540 1
  4540   4538   4554 1
  4541   4540   4541 1
  4542   4541   4542 1
  4543   4541   4543 1
  4544   4541   4548 1
  4545   4543   4544 1
  4546   4543   4545 1
  4547   4543   4546 1
  4548   4546   4547 1
  4549   4548   4549 1
  4550   4548   4550 1
  4551   4548   4558 1
  4552   4550   4551 1
  4553   4550   4552 1
  4554   4550   4554 1
  4555   4552   4553 1
  4556   4554   4555 1
  4557   4554   4556 1
  4558   4556   4557 1
  4559   4559   4560 1
  4560   4559   4561 1
  4561   4559   4576 1
  4562   4561   4562 1
  4563   4561   4563 1
  4564   4561   4565 1
  4565   4563   4564 1
  4566   4565   4566 1
  4567   4565   4567 1
  4568   4565   4569 1
  4569   4567   4568 1
  4570   4569   4570 1
  4571   4569   4571 1
  4572   4569   4577 1
  4573   4571   4572 1
  4574   4571   4573 1
  4575   4571   4576 1
  4576   4573   4574 1
  4577   4573   4575 1
  4578   4578   4579 1
  4579   4578   4580 1
  4580   4578   4592 1
  4581   4580   4581 1
  4582   4581   4582 1
  4583   4581   4583 1
  4584   4581   4586 1
  4585   4583   4584 1
  4586   4583   4585 1
  4587   4586   4587 1
  4588   4586   4588 1
  4589   4586   4596 1
  4590   4588   4589 1
  4591   4588   4590 1
  4592   4588   4592 1
  4593   4590   4591 1
  4594   4592   4593 1
  4595   4592   4594 1
  4596   4594   4595 1
  4597   4597   4598 1
  4598   4597   4603 1
  4599   4597   4614 1
  4600   4598   4599 1
  4601   4598   4600 1
  4602   4598   4601 1
  4603   4601   4602 1
  4604   4603   4604 1
  4605   4603   4605 1
  4606   4603   4607 1
  4607   4605   4606 1
  4608   4607   4608 1
  4609   4607   4609 1
  4610   4607   4617 1
  4611   4609   4610 1
  4612   4609   4611 1
  4613   4609   4615 1
  4614   4611   4612 1
  4615   4611   4613 1
  4616   4611   4614 1
  4617   4615   4616 1
  4618   4618   4619 1
  4619   4618   4624 1
  4620   4618   4634 1
  4621   4619   4620 1
  4622   4619   4621 1
  4623   4619   4622 1
  4624   4622   4623 1
  4625   4624   4625 1
  4626   4625   4626 1
  4627   4625   4627 1
  4628   4625   4628 1
  4629   4628   4629 1
  4630   4628   4630 1
  4631   4628   4632 1
  4632   4630   4631 1
  4633   4632   4633 1
  4634   4632   4634 1
  4635   4632   4638 1
  4636   4634   4635 1
  4637   4634   4636 1
  4638   4636   4637 1
  4639   4639   4640 1
  4640   4639   4641 1
  4641   4639   4657 1
  4642   4641   4642 1
  4643   4641   4643 1
  4644   4641   4645 1
  4645   4643   4644 1
  4646   4645   4646 1
  4647   4645   4647 1
  4648   4645   4649 1
  4649   4647   4648 1
  4650   4649   4650 1
  4651   4649   4651 1
  4652   4649   4658 1
  4653   4651   4652 1
  4654   4651   4653 1
  4655   4651   4657 1
  4656   4653   4654 1
  4657   4653   4655 1
  4658   4653   4656 1
  4659   4659   4660 1
  4660   4659   4661 1
  4661   4659   4674 1
  4662   4661   4662 1
  4663   4662   4663 1
  4664   4662   4664 1
  4665   4662   4668 1
  4666   4664   4665 1
  4667   4664   4666 1
  4668   4664   4667 1
  4669   4668   4669 1
  4670   4668   4670 1
  4671   4668   4678 1
  4672   4670   4671 1
  4673   4670   4672 1
  4674   4670   4674 1
  4675   4672   4673 1
  4676   4674   4675 1
  4677   4674   4676 1
  4678   4676   4677 1
  4679   4679   4680 1
  4680   4679   4681 1
  4681   4679   4694 1
  4682   4681   4682 1
  4683   4681   4683 1
  4684   4681   4685 1
  4685   4683   4684 1
  4686   4685   4686 1
  4687   4685   4687 1
  4688   4685   4689 1
  4689   4687   4688 1
  4690   4689   4690 1
  4691   4689   4691 1
  4692   4689   4695 1
  4693   4691   4692 1
  4694   4691   4693 1
  4695   4691   4694 1
  4696   4696   4697 1
  4697   4696   4698 1
  4698   4696   4708 1
  4699   4698   4699 1
  4700   4699   4700 1
  4701   4699   4701 1
  4702   4699   4702 1
  4703   4702   4703 1
  4704   4702   4704 1
  4705   4702   4712 1
  4706   4704   4705 1
  4707   4704   4706 1
  4708   4704   4708 1
  4709   4706   4707 1
  4710   4708   4709 1
  4711   4708   4710 1
  4712   4710   4711 1
  4713   4713   4714 1
  4714   4713   4717 1
  4715   4713   4739 1
  4716   4714   4715 1
  4717   4714   4716 1
  4718   4717   4718 1
  4719   4717   4719 1
  4720   4717   4720 1
  4721   4720   4721 1
  4722   4720   4722 1
  4723   4720   4748 1
  4724   4722   4723 1
  4725   4722   4724 1
  4726   4722   4740 1
  4727   4724   4725 1
  4728   4724   4726 1
  4729   4724   4739 1
  4730   4726   4727 1
  4731   4726   4728 1
  4732   4726   4737 1
  4733   4728   4729 1
  4734   4728   4730 1
  4735   4728   4735 1
  4736   4730   4731 1
  4737   4730   4732 1
  4738   4730   4733 1
  4739   4733   4734 1
  4740   4735   4736 1
  4741   4737   4738 1
  4742   4740   4741 1
  4743   4740   4742 1
  4744   4742   4743 1
  4745   4742   4747 1
  4746   4743   4744 1
  4747   4743   4745 1
  4748   4743   4746 1
  4749   4749   4750 1
  4750   4749   4753 1
  4751   4749   4781 1
  4752   4750   4751 1
  4753   4750   4752 1
  4754   4753   4754 1
  4755   4754   4755 1
  4756   4754   4756 1
  4757   4754   4769 1
  4758   4756   4757 1
  4759   4756   4758 1
  4760   4756   4760 1
  4761   4758   4759 1
  4762   4760   4761 1
  4763   4760   4762 1
  4764   4760   4764 1
  4765   4762   4763 1
  4766   4764   4765 1
  4767   4764   4766 1
  4768   4764   4767 1
  4769   4767   4768 1
  4770   4769   4770 1
  4771   4769   4771 1
  4772   4769   4779 1
  4773   4771   4772 1
  4774   4771   4773 1
  4775   4773   4774 1
  4776   4773   4775 1
  4777   4775   4776 1
  4778   4775   4777 1
  4779   4775   4778 1
  4780   4779   4780 1
  4781   4779   4781 1
  4782   4779   4784 1
  4783   4781   4782 1
  4784   4781   4783 1
  4785   4785   4786 1
  4786   4785   4787 1
  4787   4785   4804 1
  4788   4787   4788 1
  4789   4787   4789 1
  4790   4787   4791 1
  4791   4789   4790 1
  4792   4791   4792 1
  4793   4791   4793 1
  4794   4791   4795 1
  4795   4793   4794 1
  4796   4795   4796 1
  4797   4795   4797 1
  4798   4795   4805 1
  4799   4797   4798 1
  4800   4797   4799 1
  4801   4797   4804 1
  4802   4799   4800 1
  4803   4799   4801 1
  4804   4799   4802 1
  4805   4802   4803 1
  4806   4806   4807 1
  4807   4806   4808 1
  4808   4806   4822 1
  4809   4808   4809 1
  4810   4809   4810 1
  4811   4809   4811 1
  4812   4809   4816 1
  4813   4811   4812 1
  4814   4811   4813 1
  4815   4811   4814 1
  4816   4814   4815 1
  4817   4816   4817 1
  4818   4816   4818 1
  4819   4816   4826 1
  4820   4818   4819 1
  4821   4818   4820 1
  4822   4818   4822 1
  4823   4820   4821 1
  4824   4822   4823 1
  4825   4822   4824 1
  4826   4824   4825 1
  4827   4827   4828 1
  4828   4827   4829 1
  4829   4827   4844 1
  4830   4829   4830 1
  4831   4829   4831 1
  4832   4829   4833 1
  4833   4831   4832 1
  4834   4833   4834 1
  4835   4833   4835 1
  4836   4833   4837 1
  4837   4835   4836 1
  4838   4837   4838 1
  4839   4837   4839 1
  4840   4837   4845 1
  4841   4839   4840 1
  4842   4839   4841 1
  4843   4839   4844 1
  4844   4841   4842 1
  4845   4841   4843 1
  4846   4846   4847 1
  4847   4846   4848 1
  4848   4846   4860 1
  4849   4848   4849 1
  4850   4849   4850 1
  4851   4849   4851 1
  4852   4849   4854 1
  4853   4851   4852 1
  4854   4851   4853 1
  4855   4854   4855 1
  4856   4854   4856 1
  4857   4854   4864 1
  4858   4856   4857 1
  4859   4856   4858 1
  4860   4856   4860 1
  4861   4858   4859 1
  4862   4860   4861 1
  4863   4860   4862 1
  4864   4862   4863 1
  4865   4865   4866 1
  4866   4865   4867 1
  4867   4865   4890 1
  4868   4867   4868 1
  4869   4867   4869 1
  4870   4867   4877 1
  4871   4869   4870 1
  4872   4869   4871 1
  4873   4871   4872 1
  4874   4871   4876 1
  4875   4872   4873 1
  4876   4872   4874 1
  4877   4872   4875 1
  4878   4877   4878 1
  4879   4877   4879 1
  4880   4877   4881 1
  4881   4879   4880 1
  4882   4881   4882 1
  4883   4881   4883 1
  4884   4881   4891 1
  4885   4883   4884 1
  4886   4883   4885 1
  4887   4883   4890 1
  4888   4885   4886 1
  4889   4885   4887 1
  4890   4885   4888 1
  4891   4888   4889 1
  4892   4892   4893 1
  4893   4892   4894 1
  4894   4892   4908 1
  4895   4894   4895 1
  4896   4895   4896 1
  4897   4895   4897 1
  4898   4895   4902 1
  4899   4897   4898 1
  4900   4897   4899 1
  4901   4897   4900 1
  4902   4900   4901 1
  4903   4902   4903 1
  4904   4902   4904 1
  4905   4902   4918 1
  4906   4904   4905 1
  4907   4904   4906 1
  4908   4904   4908 1
  4909   4906   4907 1
  4910   4908   4909 1
  4911   4908   4910 1
  4912   4910   4911 1
  4913   4910   4912 1
  4914   4912   4913 1
  4915   4912   4914 1
  4916   4914   4915 1
  4917   4914   4916 1
  4918   4914   4917 1
  4919   4919   4920 1
  4920   4919   4921 1
  4921   4919   4944 1
  4922   4921   4922 1
  4923   4921   4923 1
  4924   4921   4931 1
  4925   4923   4924 1
  4926   4923   4925 1
  4927   4925   4926 1
  4928   4925   4930 1
  4929   4926   4927 1
  4930   4926   4928 1
  4931   4926   4929 1
  4932   4931   4932 1
  4933   4931   4933 1
  4934   4931   4935 1
  4935   4933   4934 1
  4936   4935   4936 1
  4937   4935   4937 1
  4938   4935   4945 1
  4939   4937   4938 1
  4940   4937   4939 1
  4941   4937   4944 1
  4942   4939   4940 1
  4943   4939   4941 1
  4944   4939   4942 1
  4945   4942   4943 1
  4946   4946   4947 1
  4947   4946   4948 1
  4948   4946   4962 1
  4949   4948   4949 1
  4950   4949   4950 1
  4951   4949   4951 1
  4952   4949   4956 1
  4953   4951   4952 1
  4954   4951   4953 1
  4955   4951   4954 1
  4956   4954   4955 1
  4957   4956   4957 1
  4958   4956   4958 1
  4959   4956   4972 1
  4960   4958   4959 1
  4961   4958   4960 1
  4962   4958   4962 1
  4963   4960   4961 1
  4964   4962   4963 1
  4965   4962   4964 1
  4966   4964   4965 1
  4967   4964   4966 1
  4968   4966   4967 1
  4969   4966   4968 1
  4970   4968   4969 1
  4971   4968   4970 1
  4972   4968   4971 1
  4973   4973   4974 1
  4974   4973   4975 1
  4975   4973   4988 1
  4976   4975   4976 1
  4977   4975   4977 1
  4978   4975   4979 1
  4979   4977   4978 1
  4980   4979   4980 1
  4981   4979   4981 1
  4982   4979   4983 1
  4983   4981   4982 1
  4984   4983   4984 1
  4985   4983   4985 1
  4986   4983   4989 1
  4987   4985   4986 1
  4988   4985   4987 1
  4989   4985   4988 1
  4990   4990   4991 1
  4991   4990   4992 1
  4992   4990   5002 1
  4993   4992   4993 1
  4994   4993   4994 1
  4995   4993   4995 1
  4996   4993   4996 1
  4997   4996   4997 1
  4998   4996   4998 1
  4999   4996   5006 1
  5000   4998   4999 1
  5001   4998   5000 1
  5002   4998   5002 1
  5003   5000   5001 1
  5004   5002   5003 1
  5005   5002   5004 1
  5006   5004   5005 1
  5007   5007   5008 1
  5008   5007   5009 1
  5009   5007   5032 1
  5010   5009   5010 1
  5011   5009   5011 1
  5012   5009   5019 1
  5013   5011   5012 1
  5014   5011   5013 1
  5015   5013   5014 1
  5016   5013   5018 1
  5017   5014   5015 1
  5018   5014   5016 1
  5019   5014   5017 1
  5020   5019   5020 1
  5021   5019   5021 1
  5022   5019   5023 1
  5023   5021   5022 1
  5024   5023   5024 1
  5025   5023   5025 1
  5026   5023   5033 1
  5027   5025   5026 1
  5028   5025   5027 1
  5029   5025   5032 1
  5030   5027   5028 1
  5031   5027   5029 1
  5032   5027   5030 1
  5033   5030   5031 1
  5034   5034   5035 1
  5035   5034   5036 1
  5036   5034   5050 1
  5037   5036   5037 1
  5038   5037   5038 1
  5039   5037   5039 1
  5040   5037   5044 1
  5041   5039   5040 1
  5042   5039   5041 1
  5043   5039   5042 1
  5044   5042   5043 1
  5045   5044   5045 1
  5046   5044   5046 1
  5047   5044   5060 1
  5048   5046   5047 1
  5049   5046   5048 1
  5050   5046   5050 1
  5051   5048   5049 1
  5052   5050   5051 1
  5053   5050   5052 1
  5054   5052   5053 1
  5055   5052   5054 1
  5056   5054   5055 1
  5057   5054   5056 1
  5058   5056   5057 1
  5059   5056   5058 1
  5060   5056   5059 1
  5061   5061   5062 1
  5062   5061   5063 1
  5063   5061   5078 1
  5064   5063   5064 1
  5065   5063   5065 1
  5066   5063   5067 1
  5067   5065   5066 1
  5068   5067   5068 1
  5069   5067   5069 1
  5070   5067   5071 1
  5071   5069   5070 1
  5072   5071   5072 1
  5073   5071   5073 1
  5074   5071   5079 1
  5075   5073   5074 1
  5076   5073   5075 1
  5077   5073   5078 1
  5078   5075   5076 1
  5079   5075   5077 1
  5080   5080   5081 1
  5081   5080   5082 1
  5082   5080   5094 1
  5083   5082   5083 1
  5084   5083   5084 1
  5085   5083   5085 1
  5086   5083   5088 1
  5087   5085   5086 1
  5088   5085   5087 1
  5089   5088   5089 1
  5090   5088   5090 1
  5091   5088   5098 1
  5092   5090   5091 1
  5093   5090   5092 1
  5094   5090   5094 1
  5095   5092   5093 1
  5096   5094   5095 1
  5097   5094   5096 1
  5098   5096   5097 1
  5099   5099   5100 1
  5100   5099   5101 1
  5101   5099   5115 1
  5102   5101   5102 1
  5103   5101   5103 1
  5104   5101   5105 1
  5105   5103   5104 1
  5106   5105   5106 1
  5107   5105   5107 1
  5108   5105   5109 1
  5109   5107   5108 1
  5110   5109   5110 1
  5111   5109   5111 1
  5112   5109   5113 1
  5113   5111   5112 1
  5114   5113   5114 1
  5115   5113   5115 1
  5116   5113   5116 1
  5117   5116   5117 1
  5118   5116   5118 1
  5119   5116   5119 1
  5120   5120   5121 1
  5121   5120   5122 1
  5122   5120   5133 1
  5123   5122   5123 1
  5124   5123   5124 1
  5125   5123   5125 1
  5126   5123   5137 1
  5127   5125   5126 1
  5128   5125   5127 1
  5129   5125   5129 1
  5130   5127   5128 1
  5131   5129   5130 1
  5132   5129   5131 1
  5133   5129   5133 1
  5134   5131   5132 1
  5135   5133   5134 1
  5136   5133   5135 1
  5137   5135   5136 1
  5138   5137   5138 1
  5139   5137   5139 1
  5140   5137   5140 1
  5141   5141   5142 1
  5142   5141   5143 1
  5143   5141   5157 1
  5144   5143   5144 1
  5145   5143   5145 1
  5146   5143   5147 1
  5147   5145   5146 1
  5148   5147   5148 1
  5149   5147   5149 1
  5150   5147   5151 1
  5151   5149   5150 1
  5152   5151   5152 1
  5153   5151   5153 1
  5154   5151   5155 1
  5155   5153   5154 1
  5156   5155   5156 1
  5157   5155   5157 1
  5158   5155   5158 1
  5159   5158   5159 1
  5160   5158   5160 1
  5161   5158   5161 1
  5162   5162   5163 1
  5163   5162   5164 1
  5164   5162   5175 1
  5165   5164   5165 1
  5166   5165   5166 1
  5167   5165   5167 1
  5168   5165   5179 1
  5169   5167   5168 1
  5170   5167   5169 1
  5171   5167   5171 1
  5172   5169   5170 1
  5173   5171   5172 1
  5174   5171   5173 1
  5175   5171   5175 1
  5176   5173   5174 1
  5177   5175   5176 1
  5178   5175   5177 1
  5179   5177   5178 1
  5180   5179   5180 1
  5181   5179   5181 1
  5182   5179   5182 1
  5183   5183   5184 1
  5184   5183   5185 1
  5185   5183   5199 1
  5186   5185   5186 1
  5187   5185   5187 1
  5188   5185   5189 1
  5189   5187   5188 1
  5190   5189   5190 1
  5191   5189   5191 1
  5192   5189   5193 1
  5193   5191   5192 1
  5194   5193   5194 1
  5195   5193   5195 1
  5196   5193   5197 1
  5197   5195   5196 1
  5198   5197   5198 1
  5199   5197   5199 1
  5200   5197   5200 1
  5201   5200   5201 1
  5202   5200   5202 1
  5203   5200   5203 1
  5204   5204   5205 1
  5205   5204   5206 1
  5206   5204   5217 1
  5207   5206   5207 1
  5208   5207   5208 1
  5209   5207   5209 1
  5210   5207   5221 1
  5211   5209   5210 1
  5212   5209   5211 1
  5213   5209   5213 1
  5214   5211   5212 1
  5215   5213   5214 1
  5216   5213   5215 1
  5217   5213   5217 1
  5218   5215   5216 1
  5219   5217   5218 1
  5220   5217   5219 1
  5221   5219   5220 1
  5222   5221   5222 1
  5223   5221   5223 1
  5224   5221   5224 1
  5225   5225   5226 1
  5226   5225   5227 1
  5227   5225   5241 1
  5228   5227   5228 1
  5229   5227   5229 1
  5230   5227   5231 1
  5231   5229   5230 1
  5232   5231   5232 1
  5233   5231   5233 1
  5234   5231   5235 1
  5235   5233   5234 1
  5236   5235   5236 1
  5237   5235   5237 1
  5238   5235   5239 1
  5239   5237   5238 1
  5240   5239   5240 1
  5241   5239   5241 1
  5242   5239   5242 1
  5243   5242   5243 1
  5244   5242   5244 1
  5245   5242   5245 1
  5246   5246   5247 1
  5247   5246   5248 1
  5248   5246   5259 1
  5249   5248   5249 1
  5250   5249   5250 1
  5251   5249   5251 1
  5252   5249   5263 1
  5253   5251   5252 1
  5254   5251   5253 1
  5255   5251   5255 1
  5256   5253   5254 1
  5257   5255   5256 1
  5258   5255   5257 1
  5259   5255   5259 1
  5260   5257   5258 1
  5261   5259   5260 1
  5262   5259   5261 1
  5263   5261   5262 1
  5264   5263   5264 1
  5265   5263   5265 1
  5266   5263   5266 1
  5267   5267   5268 1
  5268   5267   5269 1
  5269   5267   5283 1
  5270   5269   5270 1
  5271   5269   5271 1
  5272   5269   5273 1
  5273   5271   5272 1
  5274   5273   5274 1
  5275   5273   5275 1
  5276   5273   5277 1
  5277   5275   5276 1
  5278   5277   5278 1
  5279   5277   5279 1
  5280   5277   5281 1
  5281   5279   5280 1
  5282   5281   5282 1
  5283   5281   5283 1
  5284   5281   5284 1
  5285   5284   5285 1
  5286   5284   5286 1
  5287   5284   5287 1
  5288   5288   5289 1
  5289   5288   5290 1
  5290   5288   5301 1
  5291   5290   5291 1
  5292   5291   5292 1
  5293   5291   5293 1
  5294   5291   5305 1
  5295   5293   5294 1
  5296   5293   5295 1
  5297   5293   5297 1
  5298   5295   5296 1
  5299   5297   5298 1
  5300   5297   5299 1
  5301   5297   5301 1
  5302   5299   5300 1
  5303   5301   5302 1
  5304   5301   5303 1
  5305   5303   5304 1
  5306   5305   5306 1
  5307   5305   5307 1
  5308   5305   5308 1
  5309   5309   5310 1
  5310   5309   5311 1
  5311   5309   5325 1
  5312   5311   5312 1
  5313   5311   5313 1
  5314   5311   5315 1
  5315   5313   5314 1
  5316   5315   5316 1
  5317   5315   5317 1
  5318   5315   5319 1
  5319   5317   5318 1
  5320   5319   5320 1
  5321   5319   5321 1
  5322   5319   5323 1
  5323   5321   5322 1
  5324   5323   5324 1
  5325   5323   5325 1
  5326   5323   5326 1
  5327   5326   5327 1
  5328   5326   5328 1
  5329   5326   5329 1
  5330   5330   5331 1
  5331   5330   5332 1
  5332   5330   5343 1
  5333   5332   5333 1
  5334   5333   5334 1
  5335   5333   5335 1
  5336   5333   5347 1
  5337   5335   5336 1
  5338   5335   5337 1
  5339   5335   5339 1
  5340   5337   5338 1
  5341   5339   5340 1
  5342   5339   5341 1
  5343   5339   5343 1
  5344   5341   5342 1
  5345   5343   5344 1
  5346   5343   5345 1
  5347   5345   5346 1
  5348   5347   5348 1
  5349   5347   5349 1
  5350   5347   5350 1
  5351   5351   5352 1
  5352   5351   5353 1
  5353   5351   5367 1
  5354   5353   5354 1
  5355   5353   5355 1
  5356   5353   5357 1
  5357   5355   5356 1
  5358   5357   5358 1
  5359   5357   5359 1
  5360   5357   5361 1
  5361   5359   5360 1
  5362   5361   5362 1
  5363   5361   5363 1
  5364   5361   5365 1
  5365   5363   5364 1
  5366   5365   5366 1
  5367   5365   5367 1
  5368   5365   5368 1
  5369   5368   5369 1
  5370   5368   5370 1
  5371   5368   5371 1
  5372   5372   5373 1
  5373   5372   5374 1
  5374   5372   5385 1
  5375   5374   5375 1
  5376   5375   5376 1
  5377   5375   5377 1
  5378   5375   5389 1
  5379   5377   5378 1
  5380   5377   5379 1
  5381   5377   5381 1
  5382   5379   5380 1
  5383   5381   5382 1
  5384   5381   5383 1
  5385   5381   5385 1
  5386   5383   5384 1
  5387   5385   5386 1
  5388   5385   5387 1
  5389   5387   5388 1
  5390   5389   5390 1
  5391   5389   5391 1
  5392   5389   5392 1
  5393   5393   5394 1
  5394   5393   5395 1
  5395   5393   5415 1
  5396   5395   5396 1
  5397   5395   5397 1
  5398   5395   5405 1
  5399   5397   5398 1
  5400   5397   5399 1
  5401   5399   5400 1
  5402   5399   5404 1
  5403   5400   5401 1
  5404   5400   5402 1
  5405   5400   5403 1
  5406   5405   5406 1
  5407   5405   5407 1
  5408   5405   5409 1
  5409   5407   5408 1
  5410   5409   5410 1
  5411   5409   5411 1
  5412   5409   5413 1
  5413   5411   5412 1
  5414   5413   5414 1
  5415   5413   5415 1
  5416   5413   5416 1
  5417   5416   5417 1
  5418   5416   5418 1
  5419   5416   5419 1
  5420   5420   5421 1
  5421   5420   5422 1
  5422   5420   5433 1
  5423   5422   5423 1
  5424   5423   5424 1
  5425   5423   5425 1
  5426   5423   5443 1
  5427   5425   5426 1
  5428   5425   5427 1
  5429   5425   5429 1
  5430   5427   5428 1
  5431   5429   5430 1
  5432   5429   5431 1
  5433   5429   5433 1
  5434   5431   5432 1
  5435   5433   5434 1
  5436   5433   5435 1
  5437   5435   5436 1
  5438   5435   5437 1
  5439   5437   5438 1
  5440   5437   5439 1
  5441   5439   5440 1
  5442   5439   5441 1
  5443   5439   5442 1
  5444   5443   5444 1
  5445   5443   5445 1
  5446   5443   5446 1
  5447   5447   5448 1
  5448   5447   5449 1
  5449   5447   5469 1
  5450   5449   5450 1
  5451   5449   5451 1
  5452   5449   5459 1
  5453   5451   5452 1
  5454   5451   5453 1
  5455   5453   5454 1
  5456   5453   5458 1
  5457   5454   5455 1
  5458   5454   5456 1
  5459   5454   5457 1
  5460   5459   5460 1
  5461   5459   5461 1
  5462   5459   5463 1
  5463   5461   5462 1
  5464   5463   5464 1
  5465   5463   5465 1
  5466   5463   5467 1
  5467   5465   5466 1
  5468   5467   5468 1
  5469   5467   5469 1
  5470   5467   5470 1
  5471   5470   5471 1
  5472   5470   5472 1
  5473   5470   5473 1
  5474   5474   5475 1
  5475   5474   5476 1
  5476   5474   5487 1
  5477   5476   5477 1
  5478   5477   5478 1
  5479   5477   5479 1
  5480   5477   5497 1
  5481   5479   5480 1
  5482   5479   5481 1
  5483   5479   5483 1
  5484   5481   5482 1
  5485   5483   5484 1
  5486   5483   5485 1
  5487   5483   5487 1
  5488   5485   5486 1
  5489   5487   5488 1
  5490   5487   5489 1
  5491   5489   5490 1
  5492   5489   5491 1
  5493   5491   5492 1
  5494   5491   5493 1
  5495   5493   5494 1
  5496   5493   5495 1
  5497   5493   5496 1
  5498   5497   5498 1
  5499   5497   5499 1
  5500   5497   5500 1
  5501   5501   5502 1
  5502   5501   5503 1
  5503   5501   5523 1
  5504   5503   5504 1
  5505   5503   5505 1
  5506   5503   5513 1
  5507   5505   5506 1
  5508   5505   5507 1
  5509   5507   5508 1
  5510   5507   5512 1
  5511   5508   5509 1
  5512   5508   5510 1
  5513   5508   5511 1
  5514   5513   5514 1
  5515   5513   5515 1
  5516   5513   5517 1
  5517   5515   5516 1
  5518   5517   5518 1
  5519   5517   5519 1
  5520   5517   5521 1
  5521   5519   5520 1
  5522   5521   5522 1
  5523   5521   5523 1
  5524   5521   5524 1
  5525   5524   5525 1
  5526   5524   5526 1
  5527   5524   5527 1
  5528   5528   5529 1
  5529   5528   5530 1
  5530   5528   5541 1
  5531   5530   5531 1
  5532   5531   5532 1
  5533   5531   5533 1
  5534   5531   5551 1
  5535   5533   5534 1
  5536   5533   5535 1
  5537   5533   5537 1
  5538   5535   5536 1
  5539   5537   5538 1
  5540   5537   5539 1
  5541   5537   5541 1
  5542   5539   5540 1
  5543   5541   5542 1
  5544   5541   5543 1
  5545   5543   5544 1
  5546   5543   5545 1
  5547   5545   5546 1
  5548   5545   5547 1
  5549   5547   5548 1
  5550   5547   5549 1
  5551   5547   5550 1
  5552   5551   5552 1
  5553   5551   5553 1
  5554   5551   5554 1
  5555   5555   5556 1
  5556   5555   5559 1
  5557   5555   5578 1
  5558   5556   5557 1
  5559   5556   5558 1
  5560   5559   5560 1
  5561   5559   5561 1
  5562   5559   5562 1
  5563   5562   5563 1
  5564   5562   5564 1
  5565   5562   5566 1
  5566   5564   5565 1
  5567   5566   5567 1
  5568   5566   5568 1
  5569   5566   5576 1
  5570   5568   5569 1
  5571   5568   5570 1
  5572   5570   5571 1
  5573   5570   5575 1
  5574   5571   5572 1
  5575   5571   5573 1
  5576   5571   5574 1
  5577   5576   5577 1
  5578   5576   5578 1
  5579   5576   5579 1
  5580   5579   5580 1
  5581   5579   5581 1
  5582   5579   5590 1
  5583   5581   5582 1
  5584   5581   5583 1
  5585   5581   5588 1
  5586   5583   5584 1
  5587   5583   5585 1
  5588   5583   5586 1
  5589   5586   5587 1
  5590   5588   5589 1
  5591   5591   5592 1
  5592   5591   5595 1
  5593   5591   5612 1
  5594   5592   5593 1
  5595   5592   5594 1
  5596   5595   5596 1
  5597   5596   5597 1
  5598   5596   5598 1
  5599   5596   5615 1
  5600   5598   5599 1
  5601   5598   5600 1
  5602   5598   5608 1
  5603   5600   5601 1
  5604   5600   5602 1
  5605   5602   5603 1
  5606   5602   5604 1
  5607   5604   5605 1
  5608   5604   5606 1
  5609   5604   5607 1
  5610   5608   5609 1
  5611   5608   5610 1
  5612   5608   5612 1
  5613   5610   5611 1
  5614   5612   5613 1
  5615   5612   5614 1
  5616   5615   5616 1
  5617   5615   5617 1
  5618   5615   5626 1
  5619   5617   5618 1
  5620   5617   5619 1
  5621   5617   5621 1
  5622   5619   5620 1
  5623   5621   5622 1
  5624   5621   5623 1
  5625   5621   5624 1
  5626   5624   5625 1
  5627   5627   5628 1
  5628   5627   5631 1
  5629   5627   5650 1
  5630   5628   5629 1
  5631   5628   5630 1
  5632   5631   5632 1
  5633   5631   5633 1
  5634   5631   5634 1
  5635   5634   5635 1
  5636   5634   5636 1
  5637   5634   5638 1
  5638   5636   5637 1
  5639   5638   5639 1
  5640   5638   5640 1
  5641   5638   5648 1
  5642   5640   5641 1
  5643   5640   5642 1
  5644   5642   5643 1
  5645   5642   5647 1
  5646   5643   5644 1
  5647   5643   5645 1
  5648   5643   5646 1
  5649   5648   5649 1
  5650   5648   5650 1
  5651   5648   5651 1
  5652   5651   5652 1
  5653   5651   5653 1
  5654   5651   5655 1
  5655   5653   5654 1
  5656   5655   5656 1
  5657   5655   5657 1
  5658   5655   5662 1
  5659   5657   5658 1
  5660   5657   5659 1
  5661   5657   5660 1
  5662   5660   5661 1
  5663   5663   5664 1
  5664   5663   5667 1
  5665   5663   5684 1
  5666   5664   5665 1
  5667   5664   5666 1
  5668   5667   5668 1
  5669   5668   5669 1
  5670   5668   5670 1
  5671   5668   5687 1
  5672   5670   5671 1
  5673   5670   5672 1
  5674   5670   5680 1
  5675   5672   5673 1
  5676   5672   5674 1
  5677   5674   5675 1
  5678   5674   5676 1
  5679   5676   5677 1
  5680   5676   5678 1
  5681   5676   5679 1
  5682   5680   5681 1
  5683   5680   5682 1
  5684   5680   5684 1
  5685   5682   5683 1
  5686   5684   5685 1
  5687   5684   5686 1
  5688   5687   5688 1
  5689   5687   5689 1
  5690   5687   5691 1
  5691   5689   5690 1
  5692   5691   5692 1
  5693   5691   5693 1
  5694   5691   5698 1
  5695   5693   5694 1
  5696   5693   5695 1
  5697   5693   5696 1
  5698   5696   5697 1
  5699   5699   5700 1
  5700   5699   5703 1
  5701   5699   5722 1
  5702   5700   5701 1
  5703   5700   5702 1
  5704   5703   5704 1
  5705   5703   5705 1
  5706   5703   5706 1
  5707   5706   5707 1
  5708   5706   5708 1
  5709   5706   5710 1
  5710   5708   5709 1
  5711   5710   5711 1
  5712   5710   5712 1
  5713   5710   5720 1
  5714   5712   5713 1
  5715   5712   5714 1
  5716   5714   5715 1
  5717   5714   5719 1
  5718   5715   5716 1
  5719   5715   5717 1
  5720   5715   5718 1
  5721   5720   5721 1
  5722   5720   5722 1
  5723   5720   5723 1
  5724   5723   5724 1
  5725   5723   5725 1
  5726   5723   5727 1
  5727   5725   5726 1
  5728   5727   5728 1
  5729   5727   5729 1
  5730   5727   5731 1
  5731   5729   5730 1
  5732   5731   5732 1
  5733   5731   5733 1
  5734   5731   5734 1
  5735   5735   5736 1
  5736   5735   5739 1
  5737   5735   5756 1
  5738   5736   5737 1
  5739   5736   5738 1
  5740   5739   5740 1
  5741   5740   5741 1
  5742   5740   5742 1
  5743   5740   5759 1
  5744   5742   5743 1
  5745   5742   5744 1
  5746   5742   5752 1
  5747   5744   5745 1
  5748   5744   5746 1
  5749   5746   5747 1
  5750   5746   5748 1
  5751   5748   5749 1
  5752   5748   5750 1
  5753   5748   5751 1
  5754   5752   5753 1
  5755   5752   5754 1
  5756   5752   5756 1
  5757   5754   5755 1
  5758   5756   5757 1
  5759   5756   5758 1
  5760   5759   5760 1
  5761   5759   5761 1
  5762   5759   5763 1
  5763   5761   5762 1
  5764   5763   5764 1
  5765   5763   5765 1
  5766   5763   5767 1
  5767   5765   5766 1
  5768   5767   5768 1
  5769   5767   5769 1
  5770   5767   5770 1
  5771   5771   5772 1
  5772   5771   5773 1
  5773   5771   5785 1
  5774   5773   5774 1
  5775   5773   5775 1
  5776   5773   5788 1
  5777   5775   5776 1
  5778   5775   5777 1
  5779   5775   5787 1
  5780   5777   5778 1
  5781   5777   5779 1
  5782   5777   5786 1
  5783   5779   5780 1
  5784   5779   5781 1
  5785   5779   5785 1
  5786   5781   5782 1
  5787   5781   5783 1
  5788   5781   5784 1
  5789   5789   5790 1
  5790   5789   5791 1
  5791   5789   5804 1
  5792   5791   5792 1
  5793   5792   5793 1
  5794   5792   5794 1
  5795   5792   5798 1
  5796   5794   5795 1
  5797   5794   5796 1
  5798   5794   5797 1
  5799   5798   5799 1
  5800   5798   5800 1
  5801   5798   5801 1
  5802   5801   5802 1
  5803   5801   5803 1
  5804   5801   5804 1
  5805   5804   5805 1
  5806   5804   5806 1
  5807   5807   5808 1
  5808   5807   5809 1
  5809   5807   5821 1
  5810   5809   5810 1
  5811   5809   5811 1
  5812   5809   5824 1
  5813   5811   5812 1
  5814   5811   5813 1
  5815   5811   5823 1
  5816   5813   5814 1
  5817   5813   5815 1
  5818   5813   5822 1
  5819   5815   5816 1
  5820   5815   5817 1
  5821   5815   5821 1
  5822   5817   5818 1
  5823   5817   5819 1
  5824   5817   5820 1
  5825   5825   5826 1
  5826   5825   5827 1
  5827   5825   5840 1
  5828   5827   5828 1
  5829   5828   5829 1
  5830   5828   5830 1
  5831   5828   5834 1
  5832   5830   5831 1
  5833   5830   5832 1
  5834   5830   5833 1
  5835   5834   5835 1
  5836   5834   5836 1
  5837   5834   5837 1
  5838   5837   5838 1
  5839   5837   5839 1
  5840   5837   5840 1
  5841   5840   5841 1
  5842   5840   5842 1
  5843   5843   5844 1
  5844   5843   5845 1
  5845   5843   5857 1
  5846   5845   5846 1
  5847   5845   5847 1
  5848   5845   5860 1
  5849   5847   5848 1
  5850   5847   5849 1
  5851   5847   5859 1
  5852   5849   5850 1
  5853   5849   5851 1
  5854   5849   5858 1
  5855   5851   5852 1
  5856   5851   5853 1
  5857   5851   5857 1
  5858   5853   5854 1
  5859   5853   5855 1
  5860   5853   5856 1
  5861   5861   5862 1
  5862   5861   5863 1
  5863   5861   5876 1
  5864   5863   5864 1
  5865   5864   5865 1
  5866   5864   5866 1
  5867   5864   5870 1
  5868   5866   5867 1
  5869   5866   5868 1
  5870   5866   5869 1
  5871   5870   5871 1
  5872   5870   5872 1
  5873   5870   5873 1
  5874   5873   5874 1
  5875   5873   5875 1
  5876   5873   5876 1
  5877   5876   5877 1
  5878   5876   5878 1
  5879   5879   5880 1
  5880   5879   5881 1
  5881   5879   5893 1
  5882   5881   5882 1
  5883   5881   5883 1
  5884   5881   5896 1
  5885   5883   5884 1
  5886   5883   5885 1
  5887   5883   5895 1
  5888   5885   5886 1
  5889   5885   5887 1
  5890   5885   5894 1
  5891   5887   5888 1
  5892   5887   5889 1
  5893   5887   5893 1
  5894   5889   5890 1
  5895   5889   5891 1
  5896   5889   5892 1
  5897   5897   5898 1
  5898   5897   5899 1
  5899   5897   5912 1
  5900   5899   5900 1
  5901   5900   5901 1
  5902   5900   5902 1
  5903   5900   5906 1
  5904   5902   5903 1
  5905   5902   5904 1
  5906   5902   5905 1
  5907   5906   5907 1
  5908   5906   5908 1
  5909   5906   5909 1
  5910   5909   5910 1
  5911   5909   5911 1
  5912   5909   5912 1
  5913   5912   5913 1
  5914   5912   5914 1
  5915   5915   5916 1
  5916   5915   5917 1
  5917   5915   5929 1
  5918   5917   5918 1
  5919   5917   5919 1
  5920   5917   5932 1
  5921   5919   5920 1
  5922   5919   5921 1
  5923   5919   5931 1
  5924   5921   5922 1
  5925   5921   5923 1
  5926   5921   5930 1
  5927   5923   5924 1
  5928   5923   5925 1
  5929   5923   5929 1
  5930   5925   5926 1
  5931   5925   5927 1
  5932   5925   5928 1
  5933   5933   5934 1
  5934   5933   5935 1
  5935   5933   5948 1
  5936   5935   5936 1
  5937   5936   5937 1
  5938   5936   5938 1
  5939   5936   5942 1
  5940   5938   5939 1
  5941   5938   5940 1
  5942   5938   5941 1
  5943   5942   5943 1
  5944   5942   5944 1
  5945   5942   5945 1
  5946   5945   5946 1
  5947   5945   5947 1
  5948   5945   5948 1
  5949   5948   5949 1
  5950   5948   5950 1
  5951   5951   5952 1
  5952   5951   5953 1
  5953   5951   5965 1
  5954   5953   5954 1
  5955   5953   5955 1
  5956   5953   5968 1
  5957   5955   5956 1
  5958   5955   5957 1
  5959   5955   5967 1
  5960   5957   5958 1
  5961   5957   5959 1
  5962   5957   5966 1
  5963   5959   5960 1
  5964   5959   5961 1
  5965   5959   5965 1
  5966   5961   5962 1
  5967   5961   5963 1
  5968   5961   5964 1
  5969   5969   5970 1
  5970   5969   5971 1
  5971   5969   5984 1
  5972   5971   5972 1
  5973   5972   5973 1
  5974   5972   5974 1
  5975   5972   5978 1
  5976   5974   5975 1
  5977   5974   5976 1
  5978   5974   5977 1
  5979   5978   5979 1
  5980   5978   5980 1
  5981   5978   5981 1
  5982   5981   5982 1
  5983   5981   5983 1
  5984   5981   5984 1
  5985   5984   5985 1
  5986   5984   5986 1
  5987   5987   5988 1
  5988   5987   5989 1
  5989   5987   6001 1
  5990   5989   5990 1
  5991   5989   5991 1
  5992   5989   6004 1
  5993   5991   5992 1
  5994   5991   5993 1
  5995   5991   6003 1
  5996   5993   5994 1
  5997   5993   5995 1
  5998   5993   6002 1
  5999   5995   5996 1
  6000   5995   5997 1
  6001   5995   6001 1
  6002   5997   5998 1
  6003   5997   5999 1
  6004   5997   6000 1
  6005   6005   6006 1
  6006   6005   6007 1
  6007   6005   6020 1
  6008   6007   6008 1
  6009   6008   6009 1
  6010   6008   6010 1
  6011   6008   6014 1
  6012   6010   6011 1
  6013   6010   6012 1
  6014   6010   6013 1
  6015   6014   6015 1
  6016   6014   6016 1
  6017   6014   6017 1
  6018   6017   6018 1
  6019   6017   6019 1
  6020   6017   6020 1
  6021   6020   6021 1
  6022   6020   6022 1
  6023   6023   6024 1
  6024   6023   6025 1
  6025   6023   6039 1
  6026   6025   6026 1
  6027   6025   6027 1
  6028   6025   6029 1
  6029   6027   6028 1
  6030   6029   6030 1
  6031   6029   6031 1
  6032   6029   6041 1
  6033   6031   6032 1
  6034   6031   6033 1
  6035   6031   6040 1
  6036   6033   6034 1
  6037   6033   6035 1
  6038   6033   6039 1
  6039   6035   6036 1
  6040   6035   6037 1
  6041   6035   6038 1
  6042   6042   6043 1
  6043   6042   6044 1
  6044   6042   6056 1
  6045   6044   6045 1
  6046   6045   6046 1
  6047   6045   6047 1
  6048   6045   6051 1
  6049   6047   6048 1
  6050   6047   6049 1
  6051   6047   6050 1
  6052   6051   6052 1
  6053   6051   6053 1
  6054   6051   6054 1
  6055   6054   6055 1
  6056   6054   6056 1
  6057   6054   6060 1
  6058   6056   6057 1
  6059   6056   6058 1
  6060   6058   6059 1
  6061   6061   6062 1
  6062   6061   6063 1
  6063   6061   6077 1
  6064   6063   6064 1
  6065   6063   6065 1
  6066   6063   6067 1
  6067   6065   6066 1
  6068   6067   6068 1
  6069   6067   6069 1
  6070   6067   6079 1
  6071   6069   6070 1
  6072   6069   6071 1
  6073   6069   6078 1
  6074   6071   6072 1
  6075   6071   6073 1
  6076   6071   6077 1
  6077   6073   6074 1
  6078   6073   6075 1
  6079   6073   6076 1
  6080   6080   6081 1
  6081   6080   6082 1
  6082   6080   6094 1
  6083   6082   6083 1
  6084   6083   6084 1
  6085   6083   6085 1
  6086   6083   6089 1
  6087   6085   6086 1
  6088   6085   6087 1
  6089   6085   6088 1
  6090   6089   6090 1
  6091   6089   6091 1
  6092   6089   6092 1
  6093   6092   6093 1
  6094   6092   6094 1
  6095   6092   6098 1
  6096   6094   6095 1
  6097   6094   6096 1
  6098   6096   6097 1
  6099   6099   6100 1
  6100   6099   6101 1
  6101   6099   6115 1
  6102   6101   6102 1
  6103   6101   6103 1
  6104   6101   6105 1
  6105   6103   6104 1
  6106   6105   6106 1
  6107   6105   6107 1
  6108   6105   6117 1
  6109   6107   6108 1
  6110   6107   6109 1
  6111   6107   6116 1
  6112   6109   6110 1
  6113   6109   6111 1
  6114   6109   6115 1
  6115   6111   6112 1
  6116   6111   6113 1
  6117   6111   6114 1
  6118   6118   6119 1
  6119   6118   6120 1
  6120   6118   6132 1
  6121   6120   6121 1
  6122   6121   6122 1
  6123   6121   6123 1
  6124   6121   6127 1
  6125   6123   6124 1
  6126   6123   6125 1
  6127   6123   6126 1
  6128   6127   6128 1
  6129   6127   6129 1
  6130   6127   6130 1
  6131   6130   6131 1
  6132   6130   6132 1
  6133   6130   6136 1
  6134   6132   6133 1
  6135   6132   6134 1
  6136   6134   6135 1
  6137   6137   6138 1
  6138   6137   6139 1
  6139   6137   6153 1
  6140   6139   6140 1
  6141   6139   6141 1
  6142   6139   6143 1
  6143   6141   6142 1
  6144   6143   6144 1
  6145   6143   6145 1
  6146   6143   6155 1
  6147   6145   6146 1
  6148   6145   6147 1
  6149   6145   6154 1
  6150   6147   6148 1
  6151   6147   6149 1
  6152   6147   6153 1
  6153   6149   6150 1
  6154   6149   6151 1
  6155   6149   6152 1
  6156   6156   6157 1
  6157   6156   6158 1
  6158   6156   6170 1
  6159   6158   6159 1
  6160   6159   6160 1
  6161   6159   6161 1
  6162   6159   6165 1
  6163   6161   6162 1
  6164   6161   6163 1
  6165   6161   6164 1
  6166   6165   6166 1
  6167   6165   6167 1
  6168   6165   6168 1
  6169   6168   6169 1
  6170   6168   6170 1
  6171   6168   6174 1
  6172   6170   6171 1
  6173   6170   6172 1
  6174   6172   6173 1
  6175   6175   6176 1
  6176   6175   6177 1
  6177   6175   6191 1
  6178   6177   6178 1
  6179   6177   6179 1
  6180   6177   6181 1
  6181   6179   6180 1
  6182   6181   6182 1
  6183   6181   6183 1
  6184   6181   6193 1
  6185   6183   6184 1
  6186   6183   6185 1
  6187   6183   6192 1
  6188   6185   6186 1
  6189   6185   6187 1
  6190   6185   6191 1
  6191   6187   6188 1
  6192   6187   6189 1
  6193   6187   6190 1
  6194   6194   6195 1
  6195   6194   6196 1
  6196   6194   6208 1
  6197   6196   6197 1
  6198   6197   6198 1
  6199   6197   6199 1
  6200   6197   6203 1
  6201   6199   6200 1
  6202   6199   6201 1
  6203   6199   6202 1
  6204   6203   6204 1
  6205   6203   6205 1
  6206   6203   6206 1
  6207   6206   6207 1
  6208   6206   6208 1
  6209   6206   6212 1
  6210   6208   6209 1
  6211   6208   6210 1
  6212   6210   6211 1
  6213   6213   6214 1
  6214   6213   6215 1
  6215   6213   6229 1
  6216   6215   6216 1
  6217   6215   6217 1
  6218   6215   6219 1
  6219   6217   6218 1
  6220   6219   6220 1
  6221   6219   6221 1
  6222   6219   6231 1
  6223   6221   6222 1
  6224   6221   6223 1
  6225   6221   6230 1
  6226   6223   6224 1
  6227   6223   6225 1
  6228   6223   6229 1
  6229   6225   6226 1
  6230   6225   6227 1
  6231   6225   6228 1
  6232   6232   6233 1
  6233   6232   6234 1
  6234   6232   6246 1
  6235   6234   6235 1
  6236   6235   6236 1
  6237   6235   6237 1
  6238   6235   6241 1
  6239   6237   6238 1
  6240   6237   6239 1
  6241   6237   6240 1
  6242   6241   6242 1
  6243   6241   6243 1
  6244   6241   6244 1
  6245   6244   6245 1
  6246   6244   6246 1
  6247   6244   6250 1
  6248   6246   6247 1
  6249   6246   6248 1
  6250   6248   6249 1
  6251   6251   6252 1
  6252   6251   6253 1
  6253   6251   6267 1
  6254   6253   6254 1
  6255   6253   6255 1
  6256   6253   6257 1
  6257   6255   6256 1
  6258   6257   6258 1
  6259   6257   6259 1
  6260   6257   6269 1
  6261   6259   6260 1
  6262   6259   6261 1
  6263   6259   6268 1
  6264   6261   6262 1
  6265   6261   6263 1
  6266   6261   6267 1
  6267   6263   6264 1
  6268   6263   6265 1
  6269   6263   6266 1
  6270   6270   6271 1
  6271   6270   6272 1
  6272   6270   6284 1
  6273   6272   6273 1
  6274   6273   6274 1
  6275   6273   6275 1
  6276   6273   6279 1
  6277   6275   6276 1
  6278   6275   6277 1
  6279   6275   6278 1
  6280   6279   6280 1
  6281   6279   6281 1
  6282   6279   6282 1
  6283   6282   6283 1
  6284   6282   6284 1
  6285   6282   6288 1
  6286   6284   6285 1
  6287   6284   6286 1
  6288   6286   6287 1
  6289   6289   6290 1
  6290   6289   6291 1
  6291   6289   6311 1
  6292   6291   6292 1
  6293   6291   6293 1
  6294   6291   6301 1
  6295   6293   6294 1
  6296   6293   6295 1
  6297   6295   6296 1
  6298   6295   6300 1
  6299   6296   6297 1
  6300   6296   6298 1
  6301   6296   6299 1
  6302   6301   6302 1
  6303   6301   6303 1
  6304   6301   6313 1
  6305   6303   6304 1
  6306   6303   6305 1
  6307   6303   6312 1
  6308   6305   6306 1
  6309   6305   6307 1
  6310   6305   6311 1
  6311   6307   6308 1
  6312   6307   6309 1
  6313   6307   6310 1
  6314   6314   6315 1
  6315   6314   6316 1
  6316   6314   6328 1
  6317   6316   6317 1
  6318   6317   6318 1
  6319   6317   6319 1
  6320   6317   6323 1
  6321   6319   6320 1
  6322   6319   6321 1
  6323   6319   6322 1
  6324   6323   6324 1
  6325   6323   6325 1
  6326   6323   6326 1
  6327   6326   6327 1
  6328   6326   6328 1
  6329   6326   6338 1
  6330   6328   6329 1
  6331   6328   6330 1
  6332   6330   6331 1
  6333   6330   6332 1
  6334   6332   6333 1
  6335   6332   6334 1
  6336   6334   6335 1
  6337   6334   6336 1
  6338   6334   6337 1
  6339   6339   6340 1
  6340   6339   6341 1
  6341   6339   6361 1
  6342   6341   6342 1
  6343   6341   6343 1
  6344   6341   6351 1
  6345   6343   6344 1
  6346   6343   6345 1
  6347   6345   6346 1
  6348   6345   6350 1
  6349   6346   6347 1
  6350   6346   6348 1
  6351   6346   6349 1
  6352   6351   6352 1
  6353   6351   6353 1
  6354   6351   6363 1
  6355   6353   6354 1
  6356   6353   6355 1
  6357   6353   6362 1
  6358   6355   6356 1
  6359   6355   6357 1
  6360   6355   6361 1
  6361   6357   6358 1
  6362   6357   6359 1
  6363   6357   6360 1
  6364   6364   6365 1
  6365   6364   6366 1
  6366   6364   6378 1
  6367   6366   6367 1
  6368   6367   6368 1
  6369   6367   6369 1
  6370   6367   6373 1
  6371   6369   6370 1
  6372   6369   6371 1
  6373   6369   6372 1
  6374   6373   6374 1
  6375   6373   6375 1
  6376   6373   6376 1
  6377   6376   6377 1
  6378   6376   6378 1
  6379   6376   6388 1
  6380   6378   6379 1
  6381   6378   6380 1
  6382   6380   6381 1
  6383   6380   6382 1
  6384   6382   6383 1
  6385   6382   6384 1
  6386   6384   6385 1
  6387   6384   6386 1
  6388   6384   6387 1
  6389   6389   6390 1
  6390   6389   6391 1
  6391   6389   6411 1
  6392   6391   6392 1
  6393   6391   6393 1
  6394   6391   6401 1
  6395   6393   6394 1
  6396   6393   6395 1
  6397   6395   6396 1
  6398   6395   6400 1
  6399   6396   6397 1
  6400   6396   6398 1
  6401   6396   6399 1
  6402   6401   6402 1
  6403   6401   6403 1
  6404   6401   6413 1
  6405   6403   6404 1
  6406   6403   6405 1
  6407   6403   6412 1
  6408   6405   6406 1
  6409   6405   6407 1
  6410   6405   6411 1
  6411   6407   6408 1
  6412   6407   6409 1
  6413   6407   6410 1
  6414   6414   6415 1
  6415   6414   6416 1
  6416   6414   6428 1
  6417   6416   6417 1
  6418   6417   6418 1
  6419   6417   6419 1
  6420   6417   6423 1
  6421   6419   6420 1
  6422   6419   6421 1
  6423   6419   6422 1
  6424   6423   6424 1
  6425   6423   6425 1
  6426   6423   6426 1
  6427   6426   6427 1
  6428   6426   6428 1
  6429   6426   6438 1
  6430   6428   6429 1
  6431   6428   6430 1
  6432   6430   6431 1
  6433   6430   6432 1
  6434   6432   6433 1
  6435   6432   6434 1
  6436   6434   6435 1
  6437   6434   6436 1
  6438   6434   6437 1
  6439   6439   6440 1
  6440   6439   6441 1
  6441   6439   6453 1
  6442   6441   6442 1
  6443   6441   6443 1
  6444   6441   6457 1
  6445   6443   6444 1
  6446   6443   6445 1
  6447   6443   6455 1
  6448   6445   6446 1
  6449   6445   6447 1
  6450   6445   6454 1
  6451   6447   6448 1
  6452   6447   6449 1
  6453   6447   6453 1
  6454   6449   6450 1
  6455   6449   6451 1
  6456   6449   6452 1
  6457   6455   6456 1
  6458   6458   6459 1
  6459   6458   6460 1
  6460   6458   6474 1
  6461   6460   6461 1
  6462   6461   6462 1
  6463   6461   6463 1
  6464   6461   6467 1
  6465   6463   6464 1
  6466   6463   6465 1
  6467   6463   6466 1
  6468   6467   6468 1
  6469   6467   6469 1
  6470   6467   6470 1
  6471   6470   6471 1
  6472   6470   6472 1
  6473   6470   6474 1
  6474   6472   6473 1
  6475   6474   6475 1
  6476   6474   6476 1
  6477   6477   6478 1
  6478   6477   6479 1
  6479   6477   6491 1
  6480   6479   6480 1
  6481   6479   6481 1
  6482   6479   6495 1
  6483   6481   6482 1
  6484   6481   6483 1
  6485   6481   6493 1
  6486   6483   6484 1
  6487   6483   6485 1
  6488   6483   6492 1
  6489   6485   6486 1
  6490   6485   6487 1
  6491   6485   6491 1
  6492   6487   6488 1
  6493   6487   6489 1
  6494   6487   6490 1
  6495   6493   6494 1
  6496   6496   6497 1
  6497   6496   6498 1
  6498   6496   6512 1
  6499   6498   6499 1
  6500   6499   6500 1
  6501   6499   6501 1
  6502   6499   6505 1
  6503   6501   6502 1
  6504   6501   6503 1
  6505   6501   6504 1
  6506   6505   6506 1
  6507   6505   6507 1
  6508   6505   6508 1
  6509   6508   6509 1
  6510   6508   6510 1
  6511   6508   6512 1
  6512   6510   6511 1
  6513   6512   6513 1
  6514   6512   6514 1
  6515   6515   6516 1
  6516   6515   6517 1
  6517   6515   6529 1
  6518   6517   6518 1
  6519   6517   6519 1
  6520   6517   6533 1
  6521   6519   6520 1
  6522   6519   6521 1
  6523   6519   6531 1
  6524   6521   6522 1
  6525   6521   6523 1
  6526   6521   6530 1
  6527   6523   6524 1
  6528   6523   6525 1
  6529   6523   6529 1
  6530   6525   6526 1
  6531   6525   6527 1
  6532   6525   6528 1
  6533   6531   6532 1
  6534   6534   6535 1
  6535   6534   6536 1
  6536   6534   6550 1
  6537   6536   6537 1
  6538   6537   6538 1
  6539   6537   6539 1
  6540   6537   6543 1
  6541   6539   6540 1
  6542   6539   6541 1
  6543   6539   6542 1
  6544   6543   6544 1
  6545   6543   6545 1
  6546   6543   6546 1
  6547   6546   6547 1
  6548   6546   6548 1
  6549   6546   6550 1
  6550   6548   6549 1
  6551   6550   6551 1
  6552   6550   6552 1
  6553   6553   6554 1
  6554   6553   6555 1
  6555   6553   6567 1
  6556   6555   6556 1
  6557   6555   6557 1
  6558   6555   6571 1
  6559   6557   6558 1
  6560   6557   6559 1
  6561   6557   6569 1
  6562   6559   6560 1
  6563   6559   6561 1
  6564   6559   6568 1
  6565   6561   6562 1
  6566   6561   6563 1
  6567   6561   6567 1
  6568   6563   6564 1
  6569   6563   6565 1
  6570   6563   6566 1
  6571   6569   6570 1
  6572   6572   6573 1
  6573   6572   6574 1
  6574   6572   6588 1
  6575   6574   6575 1
  6576   6575   6576 1
  6577   6575   6577 1
  6578   6575   6581 1
  6579   6577   6578 1
  6580   6577   6579 1
  6581   6577   6580 1
  6582   6581   6582 1
  6583   6581   6583 1
  6584   6581   6584 1
  6585   6584   6585 1
  6586   6584   6586 1
  6587   6584   6588 1
  6588   6586   6587 1
  6589   6588   6589 1
  6590   6588   6590 1
  6591   6591   6592 1
  6592   6591   6593 1
  6593   6591   6605 1
  6594   6593   6594 1
  6595   6593   6595 1
  6596   6593   6609 1
  6597   6595   6596 1
  6598   6595   6597 1
  6599   6595   6607 1
  6600   6597   6598 1
  6601   6597   6599 1
  6602   6597   6606 1
  6603   6599   6600 1
  6604   6599   6601 1
  6605   6599   6605 1
  6606   6601   6602 1
  6607   6601   6603 1
  6608   6601   6604 1
  6609   6607   6608 1
  6610   6610   6611 1
  6611   6610   6612 1
  6612   6610   6626 1
  6613   6612   6613 1
  6614   6613   6614 1
  6615   6613   6615 1
  6616   6613   6619 1
  6617   6615   6616 1
  6618   6615   6617 1
  6619   6615   6618 1
  6620   6619   6620 1
  6621   6619   6621 1
  6622   6619   6622 1
  6623   6622   6623 1
  6624   6622   6624 1
  6625   6622   6626 1
  6626   6624   6625 1
  6627   6626   6627 1
  6628   6626   6628 1
  6629   6629   6630 1
  6630   6629   6631 1
  6631   6629   6643 1
  6632   6631   6632 1
  6633   6631   6633 1
  6634   6631   6647 1
  6635   6633   6634 1
  6636   6633   6635 1
  6637   6633   6645 1
  6638   6635   6636 1
  6639   6635   6637 1
  6640   6635   6644 1
  6641   6637   6638 1
  6642   6637   6639 1
  6643   6637   6643 1
  6644   6639   6640 1
  6645   6639   6641 1
  6646   6639   6642 1
  6647   6645   6646 1
  6648   6648   6649 1
  6649   6648   6650 1
  6650   6648   6664 1
  6651   6650   6651 1
  6652   6651   6652 1
  6653   6651   6653 1
  6654   6651   6657 1
  6655   6653   6654 1
  6656   6653   6655 1
  6657   6653   6656 1
  6658   6657   6658 1
  6659   6657   6659 1
  6660   6657   6660 1
  6661   6660   6661 1
  6662   6660   6662 1
  6663   6660   6664 1
  6664   6662   6663 1
  6665   6664   6665 1
  6666   6664   6666 1
  6667   6667   6668 1
  6668   6667   6669 1
  6669   6667   6681 1
  6670   6669   6670 1
  6671   6669   6671 1
  6672   6669   6685 1
  6673   6671   6672 1
  6674   6671   6673 1
  6675   6671   6683 1
  6676   6673   6674 1
  6677   6673   6675 1
  6678   6673   6682 1
  6679   6675   6676 1
  6680   6675   6677 1
  6681   6675   6681 1
  6682   6677   6678 1
  6683   6677   6679 1
  6684   6677   6680 1
  6685   6683   6684 1
  6686   6686   6687 1
  6687   6686   6688 1
  6688   6686   6702 1
  6689   6688   6689 1
  6690   6689   6690 1
  6691   6689   6691 1
  6692   6689   6695 1
  6693   6691   6692 1
  6694   6691   6693 1
  6695   6691   6694 1
  6696   6695   6696 1
  6697   6695   6697 1
  6698   6695   6698 1
  6699   6698   6699 1
  6700   6698   6700 1
  6701   6698   6702 1
  6702   6700   6701 1
  6703   6702   6703 1
  6704   6702   6704 1
  6705   6705   6706 1
  6706   6705   6707 1
  6707   6705   6719 1
  6708   6707   6708 1
  6709   6707   6709 1
  6710   6707   6723 1
  6711   6709   6710 1
  6712   6709   6711 1
  6713   6709   6722 1
  6714   6711   6712 1
  6715   6711   6713 1
  6716   6711   6720 1
  6717   6713   6714 1
  6718   6713   6715 1
  6719   6713   6719 1
  6720   6715   6716 1
  6721   6715   6717 1
  6722   6715   6718 1
  6723   6720   6721 1
  6724   6724   6725 1
  6725   6724   6726 1
  6726   6724   6740 1
  6727   6726   6727 1
  6728   6727   6728 1
  6729   6727   6729 1
  6730   6727   6733 1
  6731   6729   6730 1
  6732   6729   6731 1
  6733   6729   6732 1
  6734   6733   6734 1
  6735   6733   6735 1
  6736   6733   6737 1
  6737   6735   6736 1
  6738   6737   6738 1
  6739   6737   6739 1
  6740   6737   6740 1
  6741   6740   6741 1
  6742   6740   6742 1
  6743   6743   6744 1
  6744   6743   6745 1
  6745   6743   6757 1
  6746   6745   6746 1
  6747   6745   6747 1
  6748   6745   6761 1
  6749   6747   6748 1
  6750   6747   6749 1
  6751   6747   6760 1
  6752   6749   6750 1
  6753   6749   6751 1
  6754   6749   6758 1
  6755   6751   6752 1
  6756   6751   6753 1
  6757   6751   6757 1
  6758   6753   6754 1
  6759   6753   6755 1
  6760   6753   6756 1
  6761   6758   6759 1
  6762   6762   6763 1
  6763   6762   6764 1
  6764   6762   6778 1
  6765   6764   6765 1
  6766   6765   6766 1
  6767   6765   6767 1
  6768   6765   6771 1
  6769   6767   6768 1
  6770   6767   6769 1
  6771   6767   6770 1
  6772   6771   6772 1
  6773   6771   6773 1
  6774   6771   6775 1
  6775   6773   6774 1
  6776   6775   6776 1
  6777   6775   6777 1
  6778   6775   6778 1
  6779   6778   6779 1
  6780   6778   6780 1
  6781   6781   6782 1
  6782   6781   6783 1
  6783   6781   6795 1
  6784   6783   6784 1
  6785   6783   6785 1
  6786   6783   6799 1
  6787   6785   6786 1
  6788   6785   6787 1
  6789   6785   6798 1
  6790   6787   6788 1
  6791   6787   6789 1
  6792   6787   6796 1
  6793   6789   6790 1
  6794   6789   6791 1
  6795   6789   6795 1
  6796   6791   6792 1
  6797   6791   6793 1
  6798   6791   6794 1
  6799   6796   6797 1
  6800   6800   6801 1
  6801   6800   6802 1
  6802   6800   6816 1
  6803   6802   6803 1
  6804   6803   6804 1
  6805   6803   6805 1
  6806   6803   6809 1
  6807   6805   6806 1
  6808   6805   6807 1
  6809   6805   6808 1
  6810   6809   6810 1
  6811   6809   6811 1
  6812   6809   6813 1
  6813   6811   6812 1
  6814   6813   6814 1
  6815   6813   6815 1
  6816   6813   6816 1
  6817   6816   6817 1
  6818   6816   6818 1
  6819   6819   6820 1
  6820   6819   6821 1
  6821   6819   6833 1
  6822   6821   6822 1
  6823   6821   6823 1
  6824   6821   6837 1
  6825   6823   6824 1
  6826   6823   6825 1
  6827   6823   6836 1
  6828   6825   6826 1
  6829   6825   6827 1
  6830   6825   6834 1
  6831   6827   6828 1
  6832   6827   6829 1
  6833   6827   6833 1
  6834   6829   6830 1
  6835   6829   6831 1
  6836   6829   6832 1
  6837   6834   6835 1
  6838   6838   6839 1
  6839   6838   6840 1
  6840   6838   6854 1
  6841   6840   6841 1
  6842   6841   6842 1
  6843   6841   6843 1
  6844   6841   6847 1
  6845   6843   6844 1
  6846   6843   6845 1
  6847   6843   6846 1
  6848   6847   6848 1
  6849   6847   6849 1
  6850   6847   6851 1
  6851   6849   6850 1
  6852   6851   6852 1
  6853   6851   6853 1
  6854   6851   6854 1
  6855   6854   6855 1
  6856   6854   6856 1
  6857   6857   6858 1
  6858   6857   6859 1
  6859   6857   6871 1
  6860   6859   6860 1
  6861   6859   6861 1
  6862   6859   6875 1
  6863   6861   6862 1
  6864   6861   6863 1
  6865   6861   6874 1
  6866   6863   6864 1
  6867   6863   6865 1
  6868   6863   6872 1
  6869   6865   6866 1
  6870   6865   6867 1
  6871   6865   6871 1
  6872   6867   6868 1
  6873   6867   6869 1
  6874   6867   6870 1
  6875   6872   6873 1
  6876   6876   6877 1
  6877   6876   6878 1
  6878   6876   6892 1
  6879   6878   6879 1
  6880   6879   6880 1
  6881   6879   6881 1
  6882   6879   6885 1
  6883   6881   6882 1
  6884   6881   6883 1
  6885   6881   6884 1
  6886   6885   6886 1
  6887   6885   6887 1
  6888   6885   6889 1
  6889   6887   6888 1
  6890   6889   6890 1
  6891   6889   6891 1
  6892   6889   6892 1
  6893   6892   6893 1
  6894   6892   6894 1
  6895   6895   6896 1
  6896   6895   6897 1
  6897   6895   6909 1
  6898   6897   6898 1
  6899   6897   6899 1
  6900   6897   6913 1
  6901   6899   6900 1
  6902   6899   6901 1
  6903   6899   6912 1
  6904   6901   6902 1
  6905   6901   6903 1
  6906   6901   6910 1
  6907   6903   6904 1
  6908   6903   6905 1
  6909   6903   6909 1
  6910   6905   6906 1
  6911   6905   6907 1
  6912   6905   6908 1
  6913   6910   6911 1
  6914   6914   6915 1
  6915   6914   6916 1
  6916   6914   6930 1
  6917   6916   6917 1
  6918   6917   6918 1
  6919   6917   6919 1
  6920   6917   6923 1
  6921   6919   6920 1
  6922   6919   6921 1
  6923   6919   6922 1
  6924   6923   6924 1
  6925   6923   6925 1
  6926   6923   6927 1
  6927   6925   6926 1
  6928   6927   6928 1
  6929   6927   6929 1
  6930   6927   6930 1
  6931   6930   6931 1
  6932   6930   6932 1
  6933   6933   6934 1
  6934   6933   6935 1
  6935   6933   6947 1
  6936   6935   6936 1
  6937   6935   6937 1
  6938   6935   6951 1
  6939   6937   6938 1
  6940   6937   6939 1
  6941   6937   6950 1
  6942   6939   6940 1
  6943   6939   6941 1
  6944   6939   6948 1
  6945   6941   6942 1
  6946   6941   6943 1
  6947   6941   6947 1
  6948   6943   6944 1
  6949   6943   6945 1
  6950   6943   6946 1
  6951   6948   6949 1
  6952   6952   6953 1
  6953   6952   6954 1
  6954   6952   6968 1
  6955   6954   6955 1
  6956   6955   6956 1
  6957   6955   6957 1
  6958   6955   6961 1
  6959   6957   6958 1
  6960   6957   6959 1
  6961   6957   6960 1
  6962   6961   6962 1
  6963   6961   6963 1
  6964   6961   6965 1
  6965   6963   6964 1
  6966   6965   6966 1
  6967   6965   6967 1
  6968   6965   6968 1
  6969   6968   6969 1
  6970   6968   6970 1
  6971   6971   6972 1
  6972   6971   6973 1
  6973   6971   6982 1
  6974   6973   6974 1
  6975   6973   6975 1
  6976   6973   6985 1
  6977   6975   6976 1
  6978   6975   6977 1
  6979   6975   6984 1
  6980   6977   6978 1
  6981   6977   6979 1
  6982   6977   6983 1
  6983   6979   6980 1
  6984   6979   6981 1
  6985   6979   6982 1
  6986   6986   6987 1
  6987   6986   6988 1
  6988   6986   6998 1
  6989   6988   6989 1
  6990   6989   6990 1
  6991   6989   6991 1
  6992   6989   6992 1
  6993   6992   6993 1
  6994   6992   6994 1
  6995   6992   6995 1
  6996   6995   6996 1
  6997   6995   6997 1
  6998   6995   6998 1
  6999   6998   6999 1
  7000   6998   7000 1
  7001   7001   7002 1
  7002   7001   7003 1
  7003   7001   7012 1
  7004   7003   7004 1
  7005   7003   7005 1
  7006   7003   7015 1
  7007   7005   7006 1
  7008   7005   7007 1
  7009   7005   7014 1
  7010   7007   7008 1
  7011   7007   7009 1
  7012   7007   7013 1
  7013   7009   7010 1
  7014   7009   7011 1
  7015   7009   7012 1
  7016   7016   7017 1
  7017   7016   7018 1
  7018   7016   7028 1
  7019   7018   7019 1
  7020   7019   7020 1
  7021   7019   7021 1
  7022   7019   7022 1
  7023   7022   7023 1
  7024   7022   7024 1
  7025   7022   7025 1
  7026   7025   7026 1
  7027   7025   7027 1
  7028   7025   7028 1
  7029   7028   7029 1
  7030   7028   7030 1
  7031   7031   7032 1
  7032   7031   7033 1
  7033   7031   7046 1
  7034   7033   7034 1
  7035   7033   7035 1
  7036   7033   7049 1
  7037   7035   7036 1
  7038   7035   7037 1
  7039   7035   7048 1
  7040   7037   7038 1
  7041   7037   7039 1
  7042   7037   7047 1
  7043   7039   7040 1
  7044   7039   7041 1
  7045   7039   7046 1
  7046   7041   7042 1
  7047   7041   7043 1
  7048   7041   7044 1
  7049   7044   7045 1
  7050   7050   7051 1
  7051   7050   7052 1
  7052   7050   7066 1
  7053   7052   7053 1
  7054   7053   7054 1
  7055   7053   7055 1
  7056   7053   7060 1
  7057   7055   7056 1
  7058   7055   7057 1
  7059   7055   7058 1
  7060   7058   7059 1
  7061   7060   7061 1
  7062   7060   7062 1
  7063   7060   7063 1
  7064   7063   7064 1
  7065   7063   7065 1
  7066   7063   7066 1
  7067   7066   7067 1
  7068   7066   7068 1
  7069   7069   7070 1
  7070   7069   7071 1
  7071   7069   7083 1
  7072   7071   7072 1
  7073   7071   7073 1
  7074   7071   7086 1
  7075   7073   7074 1
  7076   7073   7075 1
  7077   7073   7085 1
  7078   7075   7076 1
  7079   7075   7077 1
  7080   7075   7084 1
  7081   7077   7078 1
  7082   7077   7079 1
  7083   7077   7083 1
  7084   7079   7080 1
  7085   7079   7081 1
  7086   7079   7082 1
  7087   7087   7088 1
  7088   7087   7089 1
  7089   7087   7102 1
  7090   7089   7090 1
  7091   7090   7091 1
  7092   7090   7092 1
  7093   7090   7096 1
  7094   7092   7093 1
  7095   7092   7094 1
  7096   7092   7095 1
  7097   7096   7097 1
  7098   7096   7098 1
  7099   7096   7099 1
  7100   7099   7100 1
  7101   7099   7101 1
  7102   7099   7102 1
  7103   7102   7103 1
  7104   7102   7104 1
  7105   7105   7106 1
  7106   7105   7107 1
  7107   7105   7120 1
  7108   7107   7108 1
  7109   7107   7109 1
  7110   7107   7123 1
  7111   7109   7110 1
  7112   7109   7111 1
  7113   7109   7122 1
  7114   7111   7112 1
  7115   7111   7113 1
  7116   7111   7121 1
  7117   7113   7114 1
  7118   7113   7115 1
  7119   7113   7120 1
  7120   7115   7116 1
  7121   7115   7117 1
  7122   7115   7118 1
  7123   7118   7119 1
  7124   7124   7125 1
  7125   7124   7126 1
  7126   7124   7140 1
  7127   7126   7127 1
  7128   7127   7128 1
  7129   7127   7129 1
  7130   7127   7134 1
  7131   7129   7130 1
  7132   7129   7131 1
  7133   7129   7132 1
  7134   7132   7133 1
  7135   7134   7135 1
  7136   7134   7136 1
  7137   7134   7137 1
  7138   7137   7138 1
  7139   7137   7139 1
  7140   7137   7140 1
  7141   7140   7141 1
  7142   7140   7142 1
  7143   7143   7144 1
  7144   7143   7145 1
  7145   7143   7157 1
  7146   7145   7146 1
  7147   7145   7147 1
  7148   7145   7160 1
  7149   7147   7148 1
  7150   7147   7149 1
  7151   7147   7159 1
  7152   7149   7150 1
  7153   7149   7151 1
  7154   7149   7158 1
  7155   7151   7152 1
  7156   7151   7153 1
  7157   7151   7157 1
  7158   7153   7154 1
  7159   7153   7155 1
  7160   7153   7156 1
  7161   7161   7162 1
  7162   7161   7163 1
  7163   7161   7176 1
  7164   7163   7164 1
  7165   7164   7165 1
  7166   7164   7166 1
  7167   7164   7170 1
  7168   7166   7167 1
  7169   7166   7168 1
  7170   7166   7169 1
  7171   7170   7171 1
  7172   7170   7172 1
  7173   7170   7173 1
  7174   7173   7174 1
  7175   7173   7175 1
  7176   7173   7176 1
  7177   7176   7177 1
  7178   7176   7178 1
  7179   7179   7180 1
  7180   7179   7181 1
  7181   7179   7194 1
  7182   7181   7182 1
  7183   7181   7183 1
  7184   7181   7197 1
  7185   7183   7184 1
  7186   7183   7185 1
  7187   7183   7196 1
  7188   7185   7186 1
  7189   7185   7187 1
  7190   7185   7195 1
  7191   7187   7188 1
  7192   7187   7189 1
  7193   7187   7194 1
  7194   7189   7190 1
  7195   7189   7191 1
  7196   7189   7192 1
  7197   7192   7193 1
  7198   7198   7199 1
  7199   7198   7200 1
  7200   7198   7214 1
  7201   7200   7201 1
  7202   7201   7202 1
  7203   7201   7203 1
  7204   7201   7208 1
  7205   7203   7204 1
  7206   7203   7205 1
  7207   7203   7206 1
  7208   7206   7207 1
  7209   7208   7209 1
  7210   7208   7210 1
  7211   7208   7211 1
  7212   7211   7212 1
  7213   7211   7213 1
  7214   7211   7214 1
  7215   7214   7215 1
  7216   7214   7216 1
  7217   7217   7218 1
  7218   7217   7219 1
  7219   7217   7232 1
  7220   7219   7220 1
  7221   7219   7221 1
  7222   7219   7235 1
  7223   7221   7222 1
  7224   7221   7223 1
  7225   7221   7234 1
  7226   7223   7224 1
  7227   7223   7225 1
  7228   7223   7233 1
  7229   7225   7226 1
  7230   7225   7227 1
  7231   7225   7232 1
  7232   7227   7228 1
  7233   7227   7229 1
  7234   7227   7230 1
  7235   7230   7231 1
  7236   7236   7237 1
  7237   7236   7238 1
  7238   7236   7252 1
  7239   7238   7239 1
  7240   7239   7240 1
  7241   7239   7241 1
  7242   7239   7246 1
  7243   7241   7242 1
  7244   7241   7243 1
  7245   7241   7244 1
  7246   7244   7245 1
  7247   7246   7247 1
  7248   7246   7248 1
  7249   7246   7249 1
  7250   7249   7250 1
  7251   7249   7251 1
  7252   7249   7252 1
  7253   7252   7253 1
  7254   7252   7254 1
  7255   7255   7256 1
  7256   7255   7257 1
  7257   7255   7270 1
  7258   7257   7258 1
  7259   7257   7259 1
  7260   7257   7273 1
  7261   7259   7260 1
  7262   7259   7261 1
  7263   7259   7272 1
  7264   7261   7262 1
  7265   7261   7263 1
  7266   7261   7271 1
  7267   7263   7264 1
  7268   7263   7265 1
  7269   7263   7270 1
  7270   7265   7266 1
  7271   7265   7267 1
  7272   7265   7268 1
  7273   7268   7269 1
  7274   7274   7275 1
  7275   7274   7276 1
  7276   7274   7290 1
  7277   7276   7277 1
  7278   7277   7278 1
  7279   7277   7279 1
  7280   7277   7284 1
  7281   7279   7280 1
  7282   7279   7281 1
  7283   7279   7282 1
  7284   7282   7283 1
  7285   7284   7285 1
  7286   7284   7286 1
  7287   7284   7287 1
  7288   7287   7288 1
  7289   7287   7289 1
  7290   7287   7290 1
  7291   7290   7291 1
  7292   7290   7292 1
  7293   7293   7294 1
  7294   7293   7295 1
  7295   7293   7308 1
  7296   7295   7296 1
  7297   7295   7297 1
  7298   7295   7311 1
  7299   7297   7298 1
  7300   7297   7299 1
  7301   7297   7310 1
  7302   7299   7300 1
  7303   7299   7301 1
  7304   7299   7309 1
  7305   7301   7302 1
  7306   7301   7303 1
  7307   7301   7308 1
  7308   7303   7304 1
  7309   7303   7305 1
  7310   7303   7306 1
  7311   7306   7307 1
  7312   7312   7313 1
  7313   7312   7314 1
  7314   7312   7328 1
  7315   7314   7315 1
  7316   7315   7316 1
  7317   7315   7317 1
  7318   7315   7322 1
  7319   7317   7318 1
  7320   7317   7319 1
  7321   7317   7320 1
  7322   7320   7321 1
  7323   7322   7323 1
  7324   7322   7324 1
  7325   7322   7325 1
  7326   7325   7326 1
  7327   7325   7327 1
  7328   7325   7328 1
  7329   7328   7329 1
  7330   7328   7330 1
  7331   7331   7332 1
  7332   7331   7333 1
  7333   7331   7344 1
  7334   7333   7334 1
  7335   7333   7335 1
  7336   7333   7347 1
  7337   7335   7336 1
  7338   7335   7337 1
  7339   7335   7346 1
  7340   7337   7338 1
  7341   7337   7339 1
  7342   7337   7345 1
  7343   7339   7340 1
  7344   7339   7341 1
  7345   7339   7344 1
  7346   7341   7342 1
  7347   7341   7343 1
  7348   7348   7349 1
  7349   7348   7350 1
  7350   7348   7362 1
  7351   7350   7351 1
  7352   7351   7352 1
  7353   7351   7353 1
  7354   7351   7356 1
  7355   7353   7354 1
  7356   7353   7355 1
  7357   7356   7357 1
  7358   7356   7358 1
  7359   7356   7359 1
  7360   7359   7360 1
  7361   7359   7361 1
  7362   7359   7362 1
  7363   7362   7363 1
  7364   7362   7364 1
  7365   7365   7366 1
  7366   7365   7367 1
  7367   7365   7379 1
  7368   7367   7368 1
  7369   7367   7369 1
  7370   7367   7382 1
  7371   7369   7370 1
  7372   7369   7371 1
  7373   7369   7381 1
  7374   7371   7372 1
  7375   7371   7373 1
  7376   7371   7380 1
  7377   7373   7374 1
  7378   7373   7375 1
  7379   7373   7379 1
  7380   7375   7376 1
  7381   7375   7377 1
  7382   7375   7378 1
  7383   7383   7384 1
  7384   7383   7385 1
  7385   7383   7398 1
  7386   7385   7386 1
  7387   7386   7387 1
  7388   7386   7388 1
  7389   7386   7392 1
  7390   7388   7389 1
  7391   7388   7390 1
  7392   7388   7391 1
  7393   7392   7393 1
  7394   7392   7394 1
  7395   7392   7395 1
  7396   7395   7396 1
  7397   7395   7397 1
  7398   7395   7398 1
  7399   7398   7399 1
  7400   7398   7400 1
  7401   7401   7402 1
  7402   7401   7403 1
  7403   7401   7412 1
  7404   7403   7404 1
  7405   7403   7405 1
  7406   7403   7415 1
  7407   7405   7406 1
  7408   7405   7407 1
  7409   7405   7414 1
  7410   7407   7408 1
  7411   7407   7409 1
  7412   7407   7413 1
  7413   7409   7410 1
  7414   7409   7411 1
  7415   7409   7412 1
  7416   7416   7417 1
  7417   7416   7418 1
  7418   7416   7428 1
  7419   7418   7419 1
  7420   7419   7420 1
  7421   7419   7421 1
  7422   7419   7422 1
  7423   7422   7423 1
  7424   7422   7424 1
  7425   7422   7425 1
  7426   7425   7426 1
  7427   7425   7427 1
  7428   7425   7428 1
  7429   7428   7429 1
  7430   7428   7430 1
  7431   7431   7432 1
  7432   7431   7433 1
  7433   7431   7446 1
  7434   7433   7434 1
  7435   7433   7435 1
  7436   7433   7449 1
  7437   7435   7436 1
  7438   7435   7437 1
  7439   7435   7448 1
  7440   7437   7438 1
  7441   7437   7439 1
  7442   7437   7447 1
  7443   7439   7440 1
  7444   7439   7441 1
  7445   7439   7446 1
  7446   7441   7442 1
  7447   7441   7443 1
  7448   7441   7444 1
  7449   7444   7445 1
  7450   7450   7451 1
  7451   7450   7452 1
  7452   7450   7466 1
  7453   7452   7453 1
  7454   7453   7454 1
  7455   7453   7455 1
  7456   7453   7460 1
  7457   7455   7456 1
  7458   7455   7457 1
  7459   7455   7458 1
  7460   7458   7459 1
  7461   7460   7461 1
  7462   7460   7462 1
  7463   7460   7463 1
  7464   7463   7464 1
  7465   7463   7465 1
  7466   7463   7466 1
  7467   7466   7467 1
  7468   7466   7468 1
  7469   7469   7470 1
  7470   7469   7471 1
  7471   7469   7482 1
  7472   7471   7472 1
  7473   7471   7473 1
  7474   7471   7485 1
  7475   7473   7474 1
  7476   7473   7475 1
  7477   7473   7484 1
  7478   7475   7476 1
  7479   7475   7477 1
  7480   7475   7483 1
  7481   7477   7478 1
  7482   7477   7479 1
  7483   7477   7482 1
  7484   7479   7480 1
  7485   7479   7481 1
  7486   7486   7487 1
  7487   7486   7488 1
  7488   7486   7500 1
  7489   7488   7489 1
  7490   7489   7490 1
  7491   7489   7491 1
  7492   7489   7494 1
  7493   7491   7492 1
  7494   7491   7493 1
  7495   7494   7495 1
  7496   7494   7496 1
  7497   7494   7497 1
  7498   7497   7498 1
  7499   7497   7499 1
  7500   7497   7500 1
  7501   7500   7501 1
  7502   7500   7502 1
  7503   7503   7504 1
  7504   7503   7505 1
  7505   7503   7514 1
  7506   7505   7506 1
  7507   7505   7507 1
  7508   7505   7517 1
  7509   7507   7508 1
  7510   7507   7509 1
  7511   7507   7516 1
  7512   7509   7510 1
  7513   7509   7511 1
  7514   7509   7515 1
  7515   7511   7512 1
  7516   7511   7513 1
  7517   7511   7514 1
  7518   7518   7519 1
  7519   7518   7520 1
  7520   7518   7530 1
  7521   7520   7521 1
  7522   7521   7522 1
  7523   7521   7523 1
  7524   7521   7524 1
  7525   7524   7525 1
  7526   7524   7526 1
  7527   7524   7527 1
  7528   7527   7528 1
  7529   7527   7529 1
  7530   7527   7530 1
  7531   7530   7531 1
  7532   7530   7532 1
  7533   7533   7534 1
  7534   7533   7535 1
  7535   7533   7546 1
  7536   7535   7536 1
  7537   7535   7537 1
  7538   7535   7549 1
  7539   7537   7538 1
  7540   7537   7539 1
  7541   7537   7548 1
  7542   7539   7540 1
  7543   7539   7541 1
  7544   7539   7547 1
  7545   7541   7542 1
  7546   7541   7543 1
  7547   7541   7546 1
  7548   7543   7544 1
  7549   7543   7545 1
  7550   7550   7551 1
  7551   7550   7552 1
  7552   7550   7564 1
  7553   7552   7553 1
  7554   7553   7554 1
  7555   7553   7555 1
  7556   7553   7558 1
  7557   7555   7556 1
  7558   7555   7557 1
  7559   7558   7559 1
  7560   7558   7560 1
  7561   7558   7561 1
  7562   7561   7562 1
  7563   7561   7563 1
  7564   7561   7564 1
  7565   7564   7565 1
  7566   7564   7566 1
  7567   7567   7568 1
  7568   7567   7569 1
  7569   7567   7585 1
  7570   7569   7570 1
  7571   7569   7571 1
  7572   7569   7573 1
  7573   7571   7572 1
  7574   7573   7574 1
  7575   7573   7575 1
  7576   7573   7577 1
  7577   7575   7576 1
  7578   7577   7578 1
  7579   7577   7579 1
  7580   7577   7586 1
  7581   7579   7580 1
  7582   7579   7581 1
  7583   7579   7585 1
  7584   7581   7582 1
  7585   7581   7583 1
  7586   7581   7584 1
  7587   7587   7588 1
  7588   7587   7589 1
  7589   7587   7602 1
  7590   7589   7590 1
  7591   7590   7591 1
  7592   7590   7592 1
  7593   7590   7596 1
  7594   7592   7593 1
  7595   7592   7594 1
  7596   7592   7595 1
  7597   7596   7597 1
  7598   7596   7598 1
  7599   7596   7606 1
  7600   7598   7599 1
  7601   7598   7600 1
  7602   7598   7602 1
  7603   7600   7601 1
  7604   7602   7603 1
  7605   7602   7604 1
  7606   7604   7605 1
  7607   7607   7608 1
  7608   7607   7609 1
  7609   7607   7625 1
  7610   7609   7610 1
  7611   7609   7611 1
  7612   7609   7613 1
  7613   7611   7612 1
  7614   7613   7614 1
  7615   7613   7615 1
  7616   7613   7617 1
  7617   7615   7616 1
  7618   7617   7618 1
  7619   7617   7619 1
  7620   7617   7626 1
  7621   7619   7620 1
  7622   7619   7621 1
  7623   7619   7625 1
  7624   7621   7622 1
  7625   7621   7623 1
  7626   7621   7624 1
  7627   7627   7628 1
  7628   7627   7629 1
  7629   7627   7642 1
  7630   7629   7630 1
  7631   7630   7631 1
  7632   7630   7632 1
  7633   7630   7636 1
  7634   7632   7633 1
  7635   7632   7634 1
  7636   7632   7635 1
  7637   7636   7637 1
  7638   7636   7638 1
  7639   7636   7646 1
  7640   7638   7639 1
  7641   7638   7640 1
  7642   7638   7642 1
  7643   7640   7641 1
  7644   7642   7643 1
  7645   7642   7644 1
  7646   7644   7645 1
  7647   7647   7648 1
  7648   7647   7649 1
  7649   7647   7665 1
  7650   7649   7650 1
  7651   7649   7651 1
  7652   7649   7653 1
  7653   7651   7652 1
  7654   7653   7654 1
  7655   7653   7655 1
  7656   7653   7657 1
  7657   7655   7656 1
  7658   7657   7658 1
  7659   7657   7659 1
  7660   7657   7666 1
  7661   7659   7660 1
  7662   7659   7661 1
  7663   7659   7665 1
  7664   7661   7662 1
  7665   7661   7663 1
  7666   7661   7664 1
  7667   7667   7668 1
  7668   7667   7669 1
  7669   7667   7682 1
  7670   7669   7670 1
  7671   7670   7671 1
  7672   7670   7672 1
  7673   7670   7676 1
  7674   7672   7673 1
  7675   7672   7674 1
  7676   7672   7675 1
  7677   7676   7677 1
  7678   7676   7678 1
  7679   7676   7686 1
  7680   7678   7679 1
  7681   7678   7680 1
  7682   7678   7682 1
  7683   7680   7681 1
  7684   7682   7683 1
  7685   7682   7684 1
  7686   7684   7685 1
  7687   7687   7688 1
  7688   7687   7689 1
  7689   7687   7705 1
  7690   7689   7690 1
  7691   7689   7691 1
  7692   7689   7693 1
  7693   7691   7692 1
  7694   7693   7694 1
  7695   7693   7695 1
  7696   7693   7697 1
  7697   7695   7696 1
  7698   7697   7698 1
  7699   7697   7699 1
  7700   7697   7706 1
  7701   7699   7700 1
  7702   7699   7701 1
  7703   7699   7705 1
  7704   7701   7702 1
  7705   7701   7703 1
  7706   7701   7704 1
  7707   7707   7708 1
  7708   7707   7709 1
  7709   7707   7722 1
  7710   7709   7710 1
  7711   7710   7711 1
  7712   7710   7712 1
  7713   7710   7716 1
  7714   7712   7713 1
  7715   7712   7714 1
  7716   7712   7715 1
  7717   7716   7717 1
  7718   7716   7718 1
  7719   7716   7726 1
  7720   7718   7719 1
  7721   7718   7720 1
  7722   7718   7722 1
  7723   7720   7721 1
  7724   7722   7723 1
  7725   7722   7724 1
  7726   7724   7725 1
  7727   7727   7728 1
  7728   7727   7729 1
  7729   7727   7745 1
  7730   7729   7730 1
  7731   7729   7731 1
  7732   7729   7733 1
  7733   7731   7732 1
  7734   7733   7734 1
  7735   7733   7735 1
  7736   7733   7737 1
  7737   7735   7736 1
  7738   7737   7738 1
  7739   7737   7739 1
  7740   7737   7746 1
  7741   7739   7740 1
  7742   7739   7741 1
  7743   7739   7745 1
  7744   7741   7742 1
  7745   7741   7743 1
  7746   7741   7744 1
  7747   7747   7748 1
  7748   7747   7749 1
  7749   7747   7762 1
  7750   7749   7750 1
  7751   7750   7751 1
  7752   7750   7752 1
  7753   7750   7756 1
  7754   7752   7753 1
  7755   7752   7754 1
  7756   7752   7755 1
  7757   7756   7757 1
  7758   7756   7758 1
  7759   7756   7766 1
  7760   7758   7759 1
  7761   7758   7760 1
  7762   7758   7762 1
  7763   7760   7761 1
  7764   7762   7763 1
  7765   7762   7764 1
  7766   7764   7765 1
  7767   7767   7768 1
  7768   7767   7769 1
  7769   7767   7785 1
  7770   7769   7770 1
  7771   7769   7771 1
  7772   7769   7773 1
  7773   7771   7772 1
  7774   7773   7774 1
  7775   7773   7775 1
  7776   7773   7777 1
  7777   7775   7776 1
  7778   7777   7778 1
  7779   7777   7779 1
  7780   7777   7786 1
  7781   7779   7780 1
  7782   7779   7781 1
  7783   7779   7785 1
  7784   7781   7782 1
  7785   7781   7783 1
  7786   7781   7784 1
  7787   7787   7788 1
  7788   7787   7789 1
  7789   7787   7802 1
  7790   7789   7790 1
  7791   7790   7791 1
  7792   7790   7792 1
  7793   7790   7796 1
  7794   7792   7793 1
  7795   7792   7794 1
  7796   7792   7795 1
  7797   7796   7797 1
  7798   7796   7798 1
  7799   7796   7806 1
  7800   7798   7799 1
  7801   7798   7800 1
  7802   7798   7802 1
  7803   7800   7801 1
  7804   7802   7803 1
  7805   7802   7804 1
  7806   7804   7805 1
  7807   7807   7808 1
  7808   7807   7809 1
  7809   7807   7825 1
  7810   7809   7810 1
  7811   7809   7811 1
  7812   7809   7813 1
  7813   7811   7812 1
  7814   7813   7814 1
  7815   7813   7815 1
  7816   7813   7817 1
  7817   7815   7816 1
  7818   7817   7818 1
  7819   7817   7819 1
  7820   7817   7826 1
  7821   7819   7820 1
  7822   7819   7821 1
  7823   7819   7825 1
  7824   7821   7822 1
  7825   7821   7823 1
  7826   7821   7824 1
  7827   7827   7828 1
  7828   7827   7829 1
  7829   7827   7842 1
  7830   7829   7830 1
  7831   7830   7831 1
  7832   7830   7832 1
  7833   7830   7836 1
  7834   7832   7833 1
  7835   7832   7834 1
  7836   7832   7835 1
  7837   7836   7837 1
  7838   7836   7838 1
  7839   7836   7846 1
  7840   7838   7839 1
  7841   7838   7840 1
  7842   7838   7842 1
  7843   7840   7841 1
  7844   7842   7843 1
  7845   7842   7844 1
  7846   7844   7845 1
  7847   7847   7848 1
  7848   7847   7849 1
  7849   7847   7871 1
  7850   7849   7850 1
  7851   7849   7851 1
  7852   7849   7859 1
  7853   7851   7852 1
  7854   7851   7853 1
  7855   7853   7854 1
  7856   7853   7858 1
  7857   7854   7855 1
  7858   7854   7856 1
  7859   7854   7857 1
  7860   7859   7860 1
  7861   7859   7861 1
  7862   7859   7863 1
  7863   7861   7862 1
  7864   7863   7864 1
  7865   7863   7865 1
  7866   7863   7872 1
  7867   7865   7866 1
  7868   7865   7867 1
  7869   7865   7871 1
  7870   7867   7868 1
  7871   7867   7869 1
  7872   7867   7870 1
  7873   7873   7874 1
  7874   7873   7875 1
  7875   7873   7888 1
  7876   7875   7876 1
  7877   7876   7877 1
  7878   7876   7878 1
  7879   7876   7882 1
  7880   7878   7879 1
  7881   7878   7880 1
  7882   7878   7881 1
  7883   7882   7883 1
  7884   7882   7884 1
  7885   7882   7898 1
  7886   7884   7885 1
  7887   7884   7886 1
  7888   7884   7888 1
  7889   7886   7887 1
  7890   7888   7889 1
  7891   7888   7890 1
  7892   7890   7891 1
  7893   7890   7892 1
  7894   7892   7893 1
  7895   7892   7894 1
  7896   7894   7895 1
  7897   7894   7896 1
  7898   7894   7897 1
  7899   7899   7900 1
  7900   7899   7901 1
  7901   7899   7923 1
  7902   7901   7902 1
  7903   7901   7903 1
  7904   7901   7911 1
  7905   7903   7904 1
  7906   7903   7905 1
  7907   7905   7906 1
  7908   7905   7910 1
  7909   7906   7907 1
  7910   7906   7908 1
  7911   7906   7909 1
  7912   7911   7912 1
  7913   7911   7913 1
  7914   7911   7915 1
  7915   7913   7914 1
  7916   7915   7916 1
  7917   7915   7917 1
  7918   7915   7924 1
  7919   7917   7918 1
  7920   7917   7919 1
  7921   7917   7923 1
  7922   7919   7920 1
  7923   7919   7921 1
  7924   7919   7922 1
  7925   7925   7926 1
  7926   7925   7927 1
  7927   7925   7940 1
  7928   7927   7928 1
  7929   7928   7929 1
  7930   7928   7930 1
  7931   7928   7934 1
  7932   7930   7931 1
  7933   7930   7932 1
  7934   7930   7933 1
  7935   7934   7935 1
  7936   7934   7936 1
  7937   7934   7950 1
  7938   7936   7937 1
  7939   7936   7938 1
  7940   7936   7940 1
  7941   7938   7939 1
  7942   7940   7941 1
  7943   7940   7942 1
  7944   7942   7943 1
  7945   7942   7944 1
  7946   7944   7945 1
  7947   7944   7946 1
  7948   7946   7947 1
  7949   7946   7948 1
  7950   7946   7949 1
  7951   7951   7952 1
  7952   7951   7953 1
  7953   7951   7975 1
  7954   7953   7954 1
  7955   7953   7955 1
  7956   7953   7963 1
  7957   7955   7956 1
  7958   7955   7957 1
  7959   7957   7958 1
  7960   7957   7962 1
  7961   7958   7959 1
  7962   7958   7960 1
  7963   7958   7961 1
  7964   7963   7964 1
  7965   7963   7965 1
  7966   7963   7967 1
  7967   7965   7966 1
  7968   7967   7968 1
  7969   7967   7969 1
  7970   7967   7976 1
  7971   7969   7970 1
  7972   7969   7971 1
  7973   7969   7975 1
  7974   7971   7972 1
  7975   7971   7973 1
  7976   7971   7974 1
  7977   7977   7978 1
  7978   7977   7979 1
  7979   7977   7992 1
  7980   7979   7980 1
  7981   7980   7981 1
  7982   7980   7982 1
  7983   7980   7986 1
  7984   7982   7983 1
  7985   7982   7984 1
  7986   7982   7985 1
  7987   7986   7987 1
  7988   7986   7988 1
  7989   7986   8002 1
  7990   7988   7989 1
  7991   7988   7990 1
  7992   7988   7992 1
  7993   7990   7991 1
  7994   7992   7993 1
  7995   7992   7994 1
  7996   7994   7995 1
  7997   7994   7996 1
  7998   7996   7997 1
  7999   7996   7998 1
  8000   7998   7999 1
  8001   7998   8000 1
  8002   7998   8001 1
  8003   8003   8004 1
  8004   8003   8005 1
  8005   8003   8019 1
  8006   8005   8006 1
  8007   8005   8007 1
  8008   8005   8009 1
  8009   8007   8008 1
  8010   8009   8010 1
  8011   8009   8011 1
  8012   8009   8022 1
  8013   8011   8012 1
  8014   8011   8013 1
  8015   8011   8020 1
  8016   8013   8014 1
  8017   8013   8015 1
  8018   8013   8019 1
  8019   8015   8016 1
  8020   8015   8017 1
  8021   8015   8018 1
  8022   8020   8021 1
  8023   8023   8024 1
  8024   8023   8025 1
  8025   8023   8038 1
  8026   8025   8026 1
  8027   8026   8027 1
  8028   8026   8028 1
  8029   8026   8032 1
  8030   8028   8029 1
  8031   8028   8030 1
  8032   8028   8031 1
  8033   8032   8033 1
  8034   8032   8034 1
  8035   8032   8036 1
  8036   8034   8035 1
  8037   8036   8037 1
  8038   8036   8038 1
  8039   8036   8042 1
  8040   8038   8039 1
  8041   8038   8040 1
  8042   8040   8041 1
  8043   8043   8044 1
  8044   8043   8045 1
  8045   8043   8059 1
  8046   8045   8046 1
  8047   8045   8047 1
  8048   8045   8049 1
  8049   8047   8048 1
  8050   8049   8050 1
  8051   8049   8051 1
  8052   8049   8062 1
  8053   8051   8052 1
  8054   8051   8053 1
  8055   8051   8060 1
  8056   8053   8054 1
  8057   8053   8055 1
  8058   8053   8059 1
  8059   8055   8056 1
  8060   8055   8057 1
  8061   8055   8058 1
  8062   8060   8061 1
  8063   8063   8064 1
  8064   8063   8065 1
  8065   8063   8078 1
  8066   8065   8066 1
  8067   8066   8067 1
  8068   8066   8068 1
  8069   8066   8072 1
  8070   8068   8069 1
  8071   8068   8070 1
  8072   8068   8071 1
  8073   8072   8073 1
  8074   8072   8074 1
  8075   8072   8076 1
  8076   8074   8075 1
  8077   8076   8077 1
  8078   8076   8078 1
  8079   8076   8082 1
  8080   8078   8079 1
  8081   8078   8080 1
  8082   8080   8081 1
  8083   8083   8084 1
  8084   8083   8085 1
  8085   8083   8099 1
  8086   8085   8086 1
  8087   8085   8087 1
  8088   8085   8089 1
  8089   8087   8088 1
  8090   8089   8090 1
  8091   8089   8091 1
  8092   8089   8102 1
  8093   8091   8092 1
  8094   8091   8093 1
  8095   8091   8100 1
  8096   8093   8094 1
  8097   8093   8095 1
  8098   8093   8099 1
  8099   8095   8096 1
  8100   8095   8097 1
  8101   8095   8098 1
  8102   8100   8101 1
  8103   8103   8104 1
  8104   8103   8105 1
  8105   8103   8118 1
  8106   8105   8106 1
  8107   8106   8107 1
  8108   8106   8108 1
  8109   8106   8112 1
  8110   8108   8109 1
  8111   8108   8110 1
  8112   8108   8111 1
  8113   8112   8113 1
  8114   8112   8114 1
  8115   8112   8116 1
  8116   8114   8115 1
  8117   8116   8117 1
  8118   8116   8118 1
  8119   8116   8122 1
  8120   8118   8119 1
  8121   8118   8120 1
  8122   8120   8121 1
  8123   8123   8124 1
  8124   8123   8125 1
  8125   8123   8139 1
  8126   8125   8126 1
  8127   8125   8127 1
  8128   8125   8129 1
  8129   8127   8128 1
  8130   8129   8130 1
  8131   8129   8131 1
  8132   8129   8142 1
  8133   8131   8132 1
  8134   8131   8133 1
  8135   8131   8140 1
  8136   8133   8134 1
  8137   8133   8135 1
  8138   8133   8139 1
  8139   8135   8136 1
  8140   8135   8137 1
  8141   8135   8138 1
  8142   8140   8141 1
  8143   8143   8144 1
  8144   8143   8145 1
  8145   8143   8158 1
  8146   8145   8146 1
  8147   8146   8147 1
  8148   8146   8148 1
  8149   8146   8152 1
  8150   8148   8149 1
  8151   8148   8150 1
  8152   8148   8151 1
  8153   8152   8153 1
  8154   8152   8154 1
  8155   8152   8156 1
  8156   8154   8155 1
  8157   8156   8157 1
  8158   8156   8158 1
  8159   8156   8162 1
  8160   8158   8159 1
  8161   8158   8160 1
  8162   8160   8161 1
  8163   8163   8164 1
  8164   8163   8165 1
  8165   8163   8179 1
  8166   8165   8166 1
  8167   8165   8167 1
  8168   8165   8169 1
  8169   8167   8168 1
  8170   8169   8170 1
  8171   8169   8171 1
  8172   8169   8182 1
  8173   8171   8172 1
  8174   8171   8173 1
  8175   8171   8180 1
  8176   8173   8174 1
  8177   8173   8175 1
  8178   8173   8179 1
  8179   8175   8176 1
  8180   8175   8177 1
  8181   8175   8178 1
  8182   8180   8181 1
  8183   8183   8184 1
  8184   8183   8185 1
  8185   8183   8198 1
  8186   8185   8186 1
  8187   8186   8187 1
  8188   8186   8188 1
  8189   8186   8192 1
  8190   8188   8189 1
  8191   8188   8190 1
  8192   8188   8191 1
  8193   8192   8193 1
  8194   8192   8194 1
  8195   8192   8196 1
  8196   8194   8195 1
  8197   8196   8197 1
  8198   8196   8198 1
  8199   8196   8202 1
  8200   8198   8199 1
  8201   8198   8200 1
  8202   8200   8201 1
  8203   8203   8204 1
  8204   8203   8205 1
  8205   8203   8219 1
  8206   8205   8206 1
  8207   8205   8207 1
  8208   8205   8209 1
  8209   8207   8208 1
  8210   8209   8210 1
  8211   8209   8211 1
  8212   8209   8222 1
  8213   8211   8212 1
  8214   8211   8213 1
  8215   8211   8220 1
  8216   8213   8214 1
  8217   8213   8215 1
  8218   8213   8219 1
  8219   8215   8216 1
  8220   8215   8217 1
  8221   8215   8218 1
  8222   8220   8221 1
  8223   8223   8224 1
  8224   8223   8225 1
  8225   8223   8238 1
  8226   8225   8226 1
  8227   8226   8227 1
  8228   8226   8228 1
  8229   8226   8232 1
  8230   8228   8229 1
  8231   8228   8230 1
  8232   8228   8231 1
  8233   8232   8233 1
  8234   8232   8234 1
  8235   8232   8236 1
  8236   8234   8235 1
  8237   8236   8237 1
  8238   8236   8238 1
  8239   8236   8242 1
  8240   8238   8239 1
  8241   8238   8240 1
  8242   8240   8241 1
  8243   8243   8244 1
  8244   8243   8245 1
  8245   8243   8259 1
  8246   8245   8246 1
  8247   8245   8247 1
  8248   8245   8249 1
  8249   8247   8248 1
  8250   8249   8250 1
  8251   8249   8251 1
  8252   8249   8262 1
  8253   8251   8252 1
  8254   8251   8253 1
  8255   8251   8260 1
  8256   8253   8254 1
  8257   8253   8255 1
  8258   8253   8259 1
  8259   8255   8256 1
  8260   8255   8257 1
  8261   8255   8258 1
  8262   8260   8261 1
  8263   8263   8264 1
  8264   8263   8265 1
  8265   8263   8278 1
  8266   8265   8266 1
  8267   8266   8267 1
  8268   8266   8268 1
  8269   8266   8272 1
  8270   8268   8269 1
  8271   8268   8270 1
  8272   8268   8271 1
  8273   8272   8273 1
  8274   8272   8274 1
  8275   8272   8276 1
  8276   8274   8275 1
  8277   8276   8277 1
  8278   8276   8278 1
  8279   8276   8282 1
  8280   8278   8279 1
  8281   8278   8280 1
  8282   8280   8281 1
  8283   8283   8284 1
  8284   8283   8285 1
  8285   8283   8305 1
  8286   8285   8286 1
  8287   8285   8287 1
  8288   8285   8295 1
  8289   8287   8288 1
  8290   8287   8289 1
  8291   8289   8290 1
  8292   8289   8294 1
  8293   8290   8291 1
  8294   8290   8292 1
  8295   8290   8293 1
  8296   8295   8296 1
  8297   8295   8297 1
  8298   8295   8308 1
  8299   8297   8298 1
  8300   8297   8299 1
  8301   8297   8306 1
  8302   8299   8300 1
  8303   8299   8301 1
  8304   8299   8305 1
  8305   8301   8302 1
  8306   8301   8303 1
  8307   8301   8304 1
  8308   8306   8307 1
  8309   8309   8310 1
  8310   8309   8311 1
  8311   8309   8324 1
  8312   8311   8312 1
  8313   8312   8313 1
  8314   8312   8314 1
  8315   8312   8318 1
  8316   8314   8315 1
  8317   8314   8316 1
  8318   8314   8317 1
  8319   8318   8319 1
  8320   8318   8320 1
  8321   8318   8322 1
  8322   8320   8321 1
  8323   8322   8323 1
  8324   8322   8324 1
  8325   8322   8334 1
  8326   8324   8325 1
  8327   8324   8326 1
  8328   8326   8327 1
  8329   8326   8328 1
  8330   8328   8329 1
  8331   8328   8330 1
  8332   8330   8331 1
  8333   8330   8332 1
  8334   8330   8333 1
  8335   8335   8336 1
  8336   8335   8337 1
  8337   8335   8357 1
  8338   8337   8338 1
  8339   8337   8339 1
  8340   8337   8347 1
  8341   8339   8340 1
  8342   8339   8341 1
  8343   8341   8342 1
  8344   8341   8346 1
  8345   8342   8343 1
  8346   8342   8344 1
  8347   8342   8345 1
  8348   8347   8348 1
  8349   8347   8349 1
  8350   8347   8360 1
  8351   8349   8350 1
  8352   8349   8351 1
  8353   8349   8358 1
  8354   8351   8352 1
  8355   8351   8353 1
  8356   8351   8357 1
  8357   8353   8354 1
  8358   8353   8355 1
  8359   8353   8356 1
  8360   8358   8359 1
  8361   8361   8362 1
  8362   8361   8363 1
  8363   8361   8376 1
  8364   8363   8364 1
  8365   8364   8365 1
  8366   8364   8366 1
  8367   8364   8370 1
  8368   8366   8367 1
  8369   8366   8368 1
  8370   8366   8369 1
  8371   8370   8371 1
  8372   8370   8372 1
  8373   8370   8374 1
  8374   8372   8373 1
  8375   8374   8375 1
  8376   8374   8376 1
  8377   8374   8386 1
  8378   8376   8377 1
  8379   8376   8378 1
  8380   8378   8379 1
  8381   8378   8380 1
  8382   8380   8381 1
  8383   8380   8382 1
  8384   8382   8383 1
  8385   8382   8384 1
  8386   8382   8385 1
  8387   8387   8388 1
  8388   8387   8389 1
  8389   8387   8409 1
  8390   8389   8390 1
  8391   8389   8391 1
  8392   8389   8399 1
  8393   8391   8392 1
  8394   8391   8393 1
  8395   8393   8394 1
  8396   8393   8398 1
  8397   8394   8395 1
  8398   8394   8396 1
  8399   8394   8397 1
  8400   8399   8400 1
  8401   8399   8401 1
  8402   8399   8412 1
  8403   8401   8402 1
  8404   8401   8403 1
  8405   8401   8410 1
  8406   8403   8404 1
  8407   8403   8405 1
  8408   8403   8409 1
  8409   8405   8406 1
  8410   8405   8407 1
  8411   8405   8408 1
  8412   8410   8411 1
  8413   8413   8414 1
  8414   8413   8415 1
  8415   8413   8428 1
  8416   8415   8416 1
  8417   8416   8417 1
  8418   8416   8418 1
  8419   8416   8422 1
  8420   8418   8419 1
  8421   8418   8420 1
  8422   8418   8421 1
  8423   8422   8423 1
  8424   8422   8424 1
  8425   8422   8426 1
  8426   8424   8425 1
  8427   8426   8427 1
  8428   8426   8428 1
  8429   8426   8438 1
  8430   8428   8429 1
  8431   8428   8430 1
  8432   8430   8431 1
  8433   8430   8432 1
  8434   8432   8433 1
  8435   8432   8434 1
  8436   8434   8435 1
  8437   8434   8436 1
  8438   8434   8437 1
  8439   8439   8440 1
  8440   8439   8441 1
  8441   8439   8452 1
  8442   8441   8442 1
  8443   8441   8443 1
  8444   8441   8445 1
  8445   8443   8444 1
  8446   8445   8446 1
  8447   8445   8447 1
  8448   8445   8454 1
  8449   8447   8448 1
  8450   8447   8449 1
  8451   8447   8453 1
  8452   8449   8450 1
  8453   8449   8451 1
  8454   8449   8452 1
  8455   8455   8456 1
  8456   8455   8457 1
  8457   8455   8466 1
  8458   8457   8458 1
  8459   8458   8459 1
  8460   8458   8460 1
  8461   8458   8461 1
  8462   8461   8462 1
  8463   8461   8463 1
  8464   8461   8464 1
  8465   8464   8465 1
  8466   8464   8466 1
  8467   8464   8470 1
  8468   8466   8467 1
  8469   8466   8468 1
  8470   8468   8469 1
  8471   8471   8472 1
  8472   8471   8477 1
  8473   8471   8486 1
  8474   8472   8473 1
  8475   8472   8474 1
  8476   8472   8475 1
  8477   8475   8476 1
  8478   8477   8478 1
  8479   8477   8479 1
  8480   8477   8490 1
  8481   8479   8480 1
  8482   8479   8481 1
  8483   8479   8489 1
  8484   8481   8482 1
  8485   8481   8483 1
  8486   8481   8487 1
  8487   8483   8484 1
  8488   8483   8485 1
  8489   8483   8486 1
  8490   8487   8488 1
  8491   8491   8492 1
  8492   8491   8497 1
  8493   8491   8508 1
  8494   8492   8493 1
  8495   8492   8494 1
  8496   8492   8495 1
  8497   8495   8496 1
  8498   8497   8498 1
  8499   8498   8499 1
  8500   8498   8500 1
  8501   8498   8501 1
  8502   8501   8502 1
  8503   8501   8503 1
  8504   8501   8505 1
  8505   8503   8504 1
  8506   8505   8506 1
  8507   8505   8507 1
  8508   8505   8508 1
  8509   8508   8509 1
  8510   8508   8510 1
  8511   8511   8512 1
  8512   8511   8517 1
  8513   8511   8526 1
  8514   8512   8513 1
  8515   8512   8514 1
  8516   8512   8515 1
  8517   8515   8516 1
  8518   8517   8518 1
  8519   8517   8519 1
  8520   8517   8530 1
  8521   8519   8520 1
  8522   8519   8521 1
  8523   8519   8529 1
  8524   8521   8522 1
  8525   8521   8523 1
  8526   8521   8527 1
  8527   8523   8524 1
  8528   8523   8525 1
  8529   8523   8526 1
  8530   8527   8528 1
  8531   8531   8532 1
  8532   8531   8537 1
  8533   8531   8548 1
  8534   8532   8533 1
  8535   8532   8534 1
  8536   8532   8535 1
  8537   8535   8536 1
  8538   8537   8538 1
  8539   8538   8539 1
  8540   8538   8540 1
  8541   8538   8541 1
  8542   8541   8542 1
  8543   8541   8543 1
  8544   8541   8545 1
  8545   8543   8544 1
  8546   8545   8546 1
  8547   8545   8547 1
  8548   8545   8548 1
  8549   8548   8549 1
  8550   8548   8550 1
  8551   8551   8552 1
  8552   8551   8553 1
  8553   8551   8564 1
  8554   8553   8554 1
  8555   8553   8555 1
  8556   8553   8557 1
  8557   8555   8556 1
  8558   8557   8558 1
  8559   8557   8559 1
  8560   8557   8566 1
  8561   8559   8560 1
  8562   8559   8561 1
  8563   8559   8565 1
  8564   8561   8562 1
  8565   8561   8563 1
  8566   8561   8564 1
  8567   8567   8568 1
  8568   8567   8569 1
  8569   8567   8578 1
  8570   8569   8570 1
  8571   8570   8571 1
  8572   8570   8572 1
  8573   8570   8573 1
  8574   8573   8574 1
  8575   8573   8575 1
  8576   8573   8576 1
  8577   8576   8577 1
  8578   8576   8578 1
  8579   8576   8582 1
  8580   8578   8579 1
  8581   8578   8580 1
  8582   8580   8581 1
  8583   8583   8584 1
  8584   8583   8585 1
  8585   8583   8600 1
  8586   8585   8586 1
  8587   8585   8587 1
  8588   8585   8589 1
  8589   8587   8588 1
  8590   8589   8590 1
  8591   8589   8591 1
  8592   8589   8602 1
  8593   8591   8592 1
  8594   8591   8593 1
  8595   8591   8601 1
  8596   8593   8594 1
  8597   8593   8595 1
  8598   8593   8600 1
  8599   8595   8596 1
  8600   8595   8597 1
  8601   8595   8598 1
  8602   8598   8599 1
  8603   8603   8604 1
  8604   8603   8605 1
  8605   8603   8618 1
  8606   8605   8606 1
  8607   8606   8607 1
  8608   8606   8608 1
  8609   8606   8613 1
  8610   8608   8609 1
  8611   8608   8610 1
  8612   8608   8611 1
  8613   8611   8612 1
  8614   8613   8614 1
  8615   8613   8615 1
  8616   8613   8616 1
  8617   8616   8617 1
  8618   8616   8618 1
  8619   8616   8622 1
  8620   8618   8619 1
  8621   8618   8620 1
  8622   8620   8621 1
  8623   8623   8624 1
  8624   8623   8625 1
  8625   8623   8639 1
  8626   8625   8626 1
  8627   8625   8627 1
  8628   8625   8629 1
  8629   8627   8628 1
  8630   8629   8630 1
  8631   8629   8631 1
  8632   8629   8641 1
  8633   8631   8632 1
  8634   8631   8633 1
  8635   8631   8640 1
  8636   8633   8634 1
  8637   8633   8635 1
  8638   8633   8639 1
  8639   8635   8636 1
  8640   8635   8637 1
  8641   8635   8638 1
  8642   8642   8643 1
  8643   8642   8644 1
  8644   8642   8656 1
  8645   8644   8645 1
  8646   8645   8646 1
  8647   8645   8647 1
  8648   8645   8651 1
  8649   8647   8648 1
  8650   8647   8649 1
  8651   8647   8650 1
  8652   8651   8652 1
  8653   8651   8653 1
  8654   8651   8654 1
  8655   8654   8655 1
  8656   8654   8656 1
  8657   8654   8660 1
  8658   8656   8657 1
  8659   8656   8658 1
  8660   8658   8659 1
  8661   8661   8662 1
  8662   8661   8663 1
  8663   8661   8678 1
  8664   8663   8664 1
  8665   8663   8665 1
  8666   8663   8667 1
  8667   8665   8666 1
  8668   8667   8668 1
  8669   8667   8669 1
  8670   8667   8680 1
  8671   8669   8670 1
  8672   8669   8671 1
  8673   8669   8679 1
  8674   8671   8672 1
  8675   8671   8673 1
  8676   8671   8678 1
  8677   8673   8674 1
  8678   8673   8675 1
  8679   8673   8676 1
  8680   8676   8677 1
  8681   8681   8682 1
  8682   8681   8683 1
  8683   8681   8696 1
  8684   8683   8684 1
  8685   8684   8685 1
  8686   8684   8686 1
  8687   8684   8691 1
  8688   8686   8687 1
  8689   8686   8688 1
  8690   8686   8689 1
  8691   8689   8690 1
  8692   8691   8692 1
  8693   8691   8693 1
  8694   8691   8694 1
  8695   8694   8695 1
  8696   8694   8696 1
  8697   8694   8700 1
  8698   8696   8697 1
  8699   8696   8698 1
  8700   8698   8699 1
  8701   8701   8702 1
  8702   8701   8703 1
  8703   8701   8717 1
  8704   8703   8704 1
  8705   8703   8705 1
  8706   8703   8707 1
  8707   8705   8706 1
  8708   8707   8708 1
  8709   8707   8709 1
  8710   8707   8719 1
  8711   8709   8710 1
  8712   8709   8711 1
  8713   8709   8718 1
  8714   8711   8712 1
  8715   8711   8713 1
  8716   8711   8717 1
  8717   8713   8714 1
  8718   8713   8715 1
  8719   8713   8716 1
  8720   8720   8721 1
  8721   8720   8722 1
  8722   8720   8734 1
  8723   8722   8723 1
  8724   8723   8724 1
  8725   8723   8725 1
  8726   8723   8729 1
  8727   8725   8726 1
  8728   8725   8727 1
  8729   8725   8728 1
  8730   8729   8730 1
  8731   8729   8731 1
  8732   8729   8732 1
  8733   8732   8733 1
  8734   8732   8734 1
  8735   8732   8738 1
  8736   8734   8735 1
  8737   8734   8736 1
  8738   8736   8737 1
  8739   8739   8740 1
  8740   8739   8745 1
  8741   8739   8754 1
  8742   8740   8741 1
  8743   8740   8742 1
  8744   8740   8743 1
  8745   8743   8744 1
  8746   8745   8746 1
  8747   8745   8747 1
  8748   8745   8758 1
  8749   8747   8748 1
  8750   8747   8749 1
  8751   8747   8757 1
  8752   8749   8750 1
  8753   8749   8751 1
  8754   8749   8755 1
  8755   8751   8752 1
  8756   8751   8753 1
  8757   8751   8754 1
  8758   8755   8756 1
  8759   8759   8760 1
  8760   8759   8765 1
  8761   8759   8776 1
  8762   8760   8761 1
  8763   8760   8762 1
  8764   8760   8763 1
  8765   8763   8764 1
  8766   8765   8766 1
  8767   8766   8767 1
  8768   8766   8768 1
  8769   8766   8769 1
  8770   8769   8770 1
  8771   8769   8771 1
  8772   8769   8773 1
  8773   8771   8772 1
  8774   8773   8774 1
  8775   8773   8775 1
  8776   8773   8776 1
  8777   8776   8777 1
  8778   8776   8778 1
  8779   8779   8780 1
  8780   8779   8781 1
  8781   8779   8796 1
  8782   8781   8782 1
  8783   8781   8783 1
  8784   8781   8785 1
  8785   8783   8784 1
  8786   8785   8786 1
  8787   8785   8787 1
  8788   8785   8798 1
  8789   8787   8788 1
  8790   8787   8789 1
  8791   8787   8797 1
  8792   8789   8790 1
  8793   8789   8791 1
  8794   8789   8796 1
  8795   8791   8792 1
  8796   8791   8793 1
  8797   8791   8794 1
  8798   8794   8795 1
  8799   8799   8800 1
  8800   8799   8801 1
  8801   8799   8814 1
  8802   8801   8802 1
  8803   8802   8803 1
  8804   8802   8804 1
  8805   8802   8809 1
  8806   8804   8805 1
  8807   8804   8806 1
  8808   8804   8807 1
  8809   8807   8808 1
  8810   8809   8810 1
  8811   8809   8811 1
  8812   8809   8812 1
  8813   8812   8813 1
  8814   8812   8814 1
  8815   8812   8818 1
  8816   8814   8815 1
  8817   8814   8816 1
  8818   8816   8817 1
  8819   8819   8820 1
  8820   8819   8821 1
  8821   8819   8836 1
  8822   8821   8822 1
  8823   8821   8823 1
  8824   8821   8825 1
  8825   8823   8824 1
  8826   8825   8826 1
  8827   8825   8827 1
  8828   8825   8838 1
  8829   8827   8828 1
  8830   8827   8829 1
  8831   8827   8837 1
  8832   8829   8830 1
  8833   8829   8831 1
  8834   8829   8836 1
  8835   8831   8832 1
  8836   8831   8833 1
  8837   8831   8834 1
  8838   8834   8835 1
  8839   8839   8840 1
  8840   8839   8841 1
  8841   8839   8854 1
  8842   8841   8842 1
  8843   8842   8843 1
  8844   8842   8844 1
  8845   8842   8849 1
  8846   8844   8845 1
  8847   8844   8846 1
  8848   8844   8847 1
  8849   8847   8848 1
  8850   8849   8850 1
  8851   8849   8851 1
  8852   8849   8852 1
  8853   8852   8853 1
  8854   8852   8854 1
  8855   8852   8858 1
  8856   8854   8855 1
  8857   8854   8856 1
  8858   8856   8857 1
  8859   8859   8860 1
  8860   8859   8861 1
  8861   8859   8876 1
  8862   8861   8862 1
  8863   8861   8863 1
  8864   8861   8865 1
  8865   8863   8864 1
  8866   8865   8866 1
  8867   8865   8867 1
  8868   8865   8878 1
  8869   8867   8868 1
  8870   8867   8869 1
  8871   8867   8877 1
  8872   8869   8870 1
  8873   8869   8871 1
  8874   8869   8876 1
  8875   8871   8872 1
  8876   8871   8873 1
  8877   8871   8874 1
  8878   8874   8875 1
  8879   8879   8880 1
  8880   8879   8881 1
  8881   8879   8894 1
  8882   8881   8882 1
  8883   8882   8883 1
  8884   8882   8884 1
  8885   8882   8889 1
  8886   8884   8885 1
  8887   8884   8886 1
  8888   8884   8887 1
  8889   8887   8888 1
  8890   8889   8890 1
  8891   8889   8891 1
  8892   8889   8892 1
  8893   8892   8893 1
  8894   8892   8894 1
  8895   8892   8898 1
  8896   8894   8895 1
  8897   8894   8896 1
  8898   8896   8897 1
  8899   8899   8900 1
  8900   8899   8901 1
  8901   8899   8916 1
  8902   8901   8902 1
  8903   8901   8903 1
  8904   8901   8905 1
  8905   8903   8904 1
  8906   8905   8906 1
  8907   8905   8907 1
  8908   8905   8918 1
  8909   8907   8908 1
  8910   8907   8909 1
  8911   8907   8917 1
  8912   8909   8910 1
  8913   8909   8911 1
  8914   8909   8916 1
  8915   8911   8912 1
  8916   8911   8913 1
  8917   8911   8914 1
  8918   8914   8915 1
  8919   8919   8920 1
  8920   8919   8921 1
  8921   8919   8934 1
  8922   8921   8922 1
  8923   8922   8923 1
  8924   8922   8924 1
  8925   8922   8929 1
  8926   8924   8925 1
  8927   8924   8926 1
  8928   8924   8927 1
  8929   8927   8928 1
  8930   8929   8930 1
  8931   8929   8931 1
  8932   8929   8932 1
  8933   8932   8933 1
  8934   8932   8934 1
  8935   8932   8938 1
  8936   8934   8935 1
  8937   8934   8936 1
  8938   8936   8937 1
  8939   8939   8940 1
  8940   8939   8941 1
  8941   8939   8954 1
  8942   8941   8942 1
  8943   8941   8943 1
  8944   8941   8945 1
  8945   8943   8944 1
  8946   8945   8946 1
  8947   8945   8947 1
  8948   8945   8956 1
  8949   8947   8948 1
  8950   8947   8949 1
  8951   8947   8955 1
  8952   8949   8950 1
  8953   8949   8951 1
  8954   8949   8954 1
  8955   8951   8952 1
  8956   8951   8953 1
  8957   8957   8958 1
  8958   8957   8959 1
  8959   8957   8970 1
  8960   8959   8960 1
  8961   8960   8961 1
  8962   8960   8962 1
  8963   8960   8965 1
  8964   8962   8963 1
  8965   8962   8964 1
  8966   8965   8966 1
  8967   8965   8967 1
  8968   8965   8968 1
  8969   8968   8969 1
  8970   8968   8970 1
  8971   8968   8974 1
  8972   8970   8971 1
  8973   8970   8972 1
  8974   8972   8973 1
  8975   8975   8976 1
  8976   8975   8981 1
  8977   8975   8990 1
  8978   8976   8977 1
  8979   8976   8978 1
  8980   8976   8979 1
  8981   8979   8980 1
  8982   8981   8982 1
  8983   8981   8983 1
  8984   8981   8994 1
  8985   8983   8984 1
  8986   8983   8985 1
  8987   8983   8993 1
  8988   8985   8986 1
  8989   8985   8987 1
  8990   8985   8991 1
  8991   8987   8988 1
  8992   8987   8989 1
  8993   8987   8990 1
  8994   8991   8992 1
  8995   8995   8996 1
  8996   8995   9001 1
  8997   8995   9012 1
  8998   8996   8997 1
  8999   8996   8998 1
  9000   8996   8999 1
  9001   8999   9000 1
  9002   9001   9002 1
  9003   9002   9003 1
  9004   9002   9004 1
  9005   9002   9005 1
  9006   9005   9006 1
  9007   9005   9007 1
  9008   9005   9009 1
  9009   9007   9008 1
  9010   9009   9010 1
  9011   9009   9011 1
  9012   9009   9012 1
  9013   9012   9013 1
  9014   9012   9014 1
  9015   9015   9016 1
  9016   9015   9017 1
  9017   9015   9031 1
  9018   9017   9018 1
  9019   9017   9019 1
  9020   9017   9021 1
  9021   9019   9020 1
  9022   9021   9022 1
  9023   9021   9023 1
  9024   9021   9033 1
  9025   9023   9024 1
  9026   9023   9025 1
  9027   9023   9032 1
  9028   9025   9026 1
  9029   9025   9027 1
  9030   9025   9031 1
  9031   9027   9028 1
  9032   9027   9029 1
  9033   9027   9030 1
  9034   9034   9035 1
  9035   9034   9036 1
  9036   9034   9048 1
  9037   9036   9037 1
  9038   9037   9038 1
  9039   9037   9039 1
  9040   9037   9043 1
  9041   9039   9040 1
  9042   9039   9041 1
  9043   9039   9042 1
  9044   9043   9044 1
  9045   9043   9045 1
  9046   9043   9046 1
  9047   9046   9047 1
  9048   9046   9048 1
  9049   9046   9052 1
  9050   9048   9049 1
  9051   9048   9050 1
  9052   9050   9051 1
  9053   9053   9054 1
  9054   9053   9055 1
  9055   9053   9066 1
  9056   9055   9056 1
  9057   9055   9057 1
  9058   9055   9059 1
  9059   9057   9058 1
  9060   9059   9060 1
  9061   9059   9061 1
  9062   9059   9068 1
  9063   9061   9062 1
  9064   9061   9063 1
  9065   9061   9067 1
  9066   9063   9064 1
  9067   9063   9065 1
  9068   9063   9066 1
  9069   9069   9070 1
  9070   9069   9071 1
  9071   9069   9080 1
  9072   9071   9072 1
  9073   9072   9073 1
  9074   9072   9074 1
  9075   9072   9075 1
  9076   9075   9076 1
  9077   9075   9077 1
  9078   9075   9078 1
  9079   9078   9079 1
  9080   9078   9080 1
  9081   9078   9084 1
  9082   9080   9081 1
  9083   9080   9082 1
  9084   9082   9083 1
  9085   9085   9086 1
  9086   9085   9087 1
  9087   9085   9102 1
  9088   9087   9088 1
  9089   9087   9089 1
  9090   9087   9091 1
  9091   9089   9090 1
  9092   9091   9092 1
  9093   9091   9093 1
  9094   9091   9104 1
  9095   9093   9094 1
  9096   9093   9095 1
  9097   9093   9103 1
  9098   9095   9096 1
  9099   9095   9097 1
  9100   9095   9102 1
  9101   9097   9098 1
  9102   9097   9099 1
  9103   9097   9100 1
  9104   9100   9101 1
  9105   9105   9106 1
  9106   9105   9107 1
  9107   9105   9120 1
  9108   9107   9108 1
  9109   9108   9109 1
  9110   9108   9110 1
  9111   9108   9115 1
  9112   9110   9111 1
  9113   9110   9112 1
  9114   9110   9113 1
  9115   9113   9114 1
  9116   9115   9116 1
  9117   9115   9117 1
  9118   9115   9118 1
  9119   9118   9119 1
  9120   9118   9120 1
  9121   9118   9124 1
  9122   9120   9121 1
  9123   9120   9122 1
  9124   9122   9123 1
  9125   9125   9126 1
  9126   9125   9127 1
  9127   9125   9140 1
  9128   9127   9128 1
  9129   9127   9129 1
  9130   9127   9131 1
  9131   9129   9130 1
  9132   9131   9132 1
  9133   9131   9133 1
  9134   9131   9142 1
  9135   9133   9134 1
  9136   9133   9135 1
  9137   9133   9141 1
  9138   9135   9136 1
  9139   9135   9137 1
  9140   9135   9140 1
  9141   9137   9138 1
  9142   9137   9139 1
  9143   9143   9144 1
  9144   9143   9145 1
  9145   9143   9156 1
  9146   9145   9146 1
  9147   9146   9147 1
  9148   9146   9148 1
  9149   9146   9151 1
  9150   9148   9149 1
  9151   9148   9150 1
  9152   9151   9152 1
  9153   9151   9153 1
  9154   9151   9154 1
  9155   9154   9155 1
  9156   9154   9156 1
  9157   9154   9160 1
  9158   9156   9157 1
  9159   9156   9158 1
  9160   9158   9159 1
  9161   9161   9162 1
  9162   9161   9163 1
  9163   9161   9184 1
  9164   9163   9164 1
  9165   9163   9165 1
  9166   9163   9173 1
  9167   9165   9166 1
  9168   9165   9167 1
  9169   9167   9168 1
  9170   9167   9172 1
  9171   9168   9169 1
  9172   9168   9170 1
  9173   9168   9171 1
  9174   9173   9174 1
  9175   9173   9175 1
  9176   9173   9186 1
  9177   9175   9176 1
  9178   9175   9177 1
  9179   9175   9185 1
  9180   9177   9178 1
  9181   9177   9179 1
  9182   9177   9184 1
  9183   9179   9180 1
  9184   9179   9181 1
  9185   9179   9182 1
  9186   9182   9183 1
  9187   9187   9188 1
  9188   9187   9189 1
  9189   9187   9202 1
  9190   9189   9190 1
  9191   9190   9191 1
  9192   9190   9192 1
  9193   9190   9197 1
  9194   9192   9193 1
  9195   9192   9194 1
  9196   9192   9195 1
  9197   9195   9196 1
  9198   9197   9198 1
  9199   9197   9199 1
  9200   9197   9200 1
  9201   9200   9201 1
  9202   9200   9202 1
  9203   9200   9212 1
  9204   9202   9203 1
  9205   9202   9204 1
  9206   9204   9205 1
  9207   9204   9206 1
  9208   9206   9207 1
  9209   9206   9208 1
  9210   9208   9209 1
  9211   9208   9210 1
  9212   9208   9211 1
  9213   9213   9214 1
  9214   9213   9215 1
  9215   9213   9236 1
  9216   9215   9216 1
  9217   9215   9217 1
  9218   9215   9225 1
  9219   9217   9218 1
  9220   9217   9219 1
  9221   9219   9220 1
  9222   9219   9224 1
  9223   9220   9221 1
  9224   9220   9222 1
  9225   9220   9223 1
  9226   9225   9226 1
  9227   9225   9227 1
  9228   9225   9238 1
  9229   9227   9228 1
  9230   9227   9229 1
  9231   9227   9237 1
  9232   9229   9230 1
  9233   9229   9231 1
  9234   9229   9236 1
  9235   9231   9232 1
  9236   9231   9233 1
  9237   9231   9234 1
  9238   9234   9235 1
  9239   9239   9240 1
  9240   9239   9241 1
  9241   9239   9254 1
  9242   9241   9242 1
  9243   9242   9243 1
  9244   9242   9244 1
  9245   9242   9249 1
  9246   9244   9245 1
  9247   9244   9246 1
  9248   9244   9247 1
  9249   9247   9248 1
  9250   9249   9250 1
  9251   9249   9251 1
  9252   9249   9252 1
  9253   9252   9253 1
  9254   9252   9254 1
  9255   9252   9264 1
  9256   9254   9255 1
  9257   9254   9256 1
  9258   9256   9257 1
  9259   9256   9258 1
  9260   9258   9259 1
  9261   9258   9260 1
  9262   9260   9261 1
  9263   9260   9262 1
  9264   9260   9263 1
  9265   9265   9266 1
  9266   9265   9267 1
  9267   9265   9278 1
  9268   9267   9268 1
  9269   9267   9269 1
  9270   9267   9271 1
  9271   9269   9270 1
  9272   9271   9272 1
  9273   9271   9273 1
  9274   9271   9280 1
  9275   9273   9274 1
  9276   9273   9275 1
  9277   9273   9279 1
  9278   9275   9276 1
  9279   9275   9277 1
  9280   9275   9278 1
  9281   9281   9282 1
  9282   9281   9283 1
  9283   9281   9292 1
  9284   9283   9284 1
  9285   9284   9285 1
  9286   9284   9286 1
  9287   9284   9287 1
  9288   9287   9288 1
  9289   9287   9289 1
  9290   9287   9290 1
  9291   9290   9291 1
  9292   9290   9292 1
  9293   9290   9296 1
  9294   9292   9293 1
  9295   9292   9294 1
  9296   9294   9295 1
  9297   9297   9298 1
  9298   9297   9299 1
  9299   9297   9320 1
  9300   9299   9300 1
  9301   9299   9301 1
  9302   9299   9309 1
  9303   9301   9302 1
  9304   9301   9303 1
  9305   9303   9304 1
  9306   9303   9308 1
  9307   9304   9305 1
  9308   9304   9306 1
  9309   9304   9307 1
  9310   9309   9310 1
  9311   9309   9311 1
  9312   9309   9322 1
  9313   9311   9312 1
  9314   9311   9313 1
  9315   9311   9321 1
  9316   9313   9314 1
  9317   9313   9315 1
  9318   9313   9320 1
  9319   9315   9316 1
  9320   9315   9317 1
  9321   9315   9318 1
  9322   9318   9319 1
  9323   9323   9324 1
  9324   9323   9325 1
  9325   9323   9338 1
  9326   9325   9326 1
  9327   9326   9327 1
  9328   9326   9328 1
  9329   9326   9333 1
  9330   9328   9329 1
  9331   9328   9330 1
  9332   9328   9331 1
  9333   9331   9332 1
  9334   9333   9334 1
  9335   9333   9335 1
  9336   9333   9336 1
  9337   9336   9337 1
  9338   9336   9338 1
  9339   9336   9348 1
  9340   9338   9339 1
  9341   9338   9340 1
  9342   9340   9341 1
  9343   9340   9342 1
  9344   9342   9343 1
  9345   9342   9344 1
  9346   9344   9345 1
  9347   9344   9346 1
  9348   9344   9347 1
  9349   9349   9350 1
  9350   9349   9351 1
  9351   9349   9364 1
  9352   9351   9352 1
  9353   9351   9353 1
  9354   9351   9355 1
  9355   9353   9354 1
  9356   9355   9356 1
  9357   9355   9357 1
  9358   9355   9366 1
  9359   9357   9358 1
  9360   9357   9359 1
  9361   9357   9365 1
  9362   9359   9360 1
  9363   9359   9361 1
  9364   9359   9364 1
  9365   9361   9362 1
  9366   9361   9363 1
  9367   9367   9368 1
  9368   9367   9369 1
  9369   9367   9380 1
  9370   9369   9370 1
  9371   9370   9371 1
  9372   9370   9372 1
  9373   9370   9375 1
  9374   9372   9373 1
  9375   9372   9374 1
  9376   9375   9376 1
  9377   9375   9377 1
  9378   9375   9378 1
  9379   9378   9379 1
  9380   9378   9380 1
  9381   9378   9384 1
  9382   9380   9381 1
  9383   9380   9382 1
  9384   9382   9383 1
  9385   9385   9386 1
  9386   9385   9387 1
  9387   9385   9399 1
  9388   9387   9388 1
  9389   9387   9389 1
  9390   9387   9404 1
  9391   9389   9390 1
  9392   9389   9391 1
  9393   9389   9402 1
  9394   9391   9392 1
  9395   9391   9393 1
  9396   9391   9400 1
  9397   9393   9394 1
  9398   9393   9395 1
  9399   9393   9399 1
  9400   9395   9396 1
  9401   9395   9397 1
  9402   9395   9398 1
  9403   9400   9401 1
  9404   9402   9403 1
  9405   9405   9406 1
  9406   9405   9407 1
  9407   9405   9422 1
  9408   9407   9408 1
  9409   9408   9409 1
  9410   9408   9410 1
  9411   9408   9414 1
  9412   9410   9411 1
  9413   9410   9412 1
  9414   9410   9413 1
  9415   9414   9415 1
  9416   9414   9416 1
  9417   9414   9418 1
  9418   9416   9417 1
  9419   9418   9419 1
  9420   9418   9420 1
  9421   9418   9422 1
  9422   9420   9421 1
  9423   9422   9423 1
  9424   9422   9424 1
  9425   9425   9426 1
  9426   9425   9427 1
  9427   9425   9439 1
  9428   9427   9428 1
  9429   9427   9429 1
  9430   9427   9444 1
  9431   9429   9430 1
  9432   9429   9431 1
  9433   9429   9442 1
  9434   9431   9432 1
  9435   9431   9433 1
  9436   9431   9440 1
  9437   9433   9434 1
  9438   9433   9435 1
  9439   9433   9439 1
  9440   9435   9436 1
  9441   9435   9437 1
  9442   9435   9438 1
  9443   9440   9441 1
  9444   9442   9443 1
  9445   9445   9446 1
  9446   9445   9447 1
  9447   9445   9462 1
  9448   9447   9448 1
  9449   9448   9449 1
  9450   9448   9450 1
  9451   9448   9454 1
  9452   9450   9451 1
  9453   9450   9452 1
  9454   9450   9453 1
  9455   9454   9455 1
  9456   9454   9456 1
  9457   9454   9458 1
  9458   9456   9457 1
  9459   9458   9459 1
  9460   9458   9460 1
  9461   9458   9462 1
  9462   9460   9461 1
  9463   9462   9463 1
  9464   9462   9464 1
  9465   9465   9466 1
  9466   9465   9467 1
  9467   9465   9479 1
  9468   9467   9468 1
  9469   9467   9469 1
  9470   9467   9484 1
  9471   9469   9470 1
  9472   9469   9471 1
  9473   9469   9482 1
  9474   9471   9472 1
  9475   9471   9473 1
  9476   9471   9480 1
  9477   9473   9474 1
  9478   9473   9475 1
  9479   9473   9479 1
  9480   9475   9476 1
  9481   9475   9477 1
  9482   9475   9478 1
  9483   9480   9481 1
  9484   9482   9483 1
  9485   9485   9486 1
  9486   9485   9487 1
  9487   9485   9502 1
  9488   9487   9488 1
  9489   9488   9489 1
  9490   9488   9490 1
  9491   9488   9494 1
  9492   9490   9491 1
  9493   9490   9492 1
  9494   9490   9493 1
  9495   9494   9495 1
  9496   9494   9496 1
  9497   9494   9498 1
  9498   9496   9497 1
  9499   9498   9499 1
  9500   9498   9500 1
  9501   9498   9502 1
  9502   9500   9501 1
  9503   9502   9503 1
  9504   9502   9504 1
  9505   9505   9506 1
  9506   9505   9507 1
  9507   9505   9519 1
  9508   9507   9508 1
  9509   9507   9509 1
  9510   9507   9524 1
  9511   9509   9510 1
  9512   9509   9511 1
  9513   9509   9522 1
  9514   9511   9512 1
  9515   9511   9513 1
  9516   9511   9520 1
  9517   9513   9514 1
  9518   9513   9515 1
  9519   9513   9519 1
  9520   9515   9516 1
  9521   9515   9517 1
  9522   9515   9518 1
  9523   9520   9521 1
  9524   9522   9523 1
  9525   9525   9526 1
  9526   9525   9527 1
  9527   9525   9542 1
  9528   9527   9528 1
  9529   9528   9529 1
  9530   9528   9530 1
  9531   9528   9534 1
  9532   9530   9531 1
  9533   9530   9532 1
  9534   9530   9533 1
  9535   9534   9535 1
  9536   9534   9536 1
  9537   9534   9538 1
  9538   9536   9537 1
  9539   9538   9539 1
  9540   9538   9540 1
  9541   9538   9542 1
  9542   9540   9541 1
  9543   9542   9543 1
  9544   9542   9544 1
  9545   9545   9546 1
  9546   9545   9547 1
  9547   9545   9559 1
  9548   9547   9548 1
  9549   9547   9549 1
  9550   9547   9564 1
  9551   9549   9550 1
  9552   9549   9551 1
  9553   9549   9562 1
  9554   9551   9552 1
  9555   9551   9553 1
  9556   9551   9560 1
  9557   9553   9554 1
  9558   9553   9555 1
  9559   9553   9559 1
  9560   9555   9556 1
  9561   9555   9557 1
  9562   9555   9558 1
  9563   9560   9561 1
  9564   9562   9563 1
  9565   9565   9566 1
  9566   9565   9567 1
  9567   9565   9582 1
  9568   9567   9568 1
  9569   9568   9569 1
  9570   9568   9570 1
  9571   9568   9574 1
  9572   9570   9571 1
  9573   9570   9572 1
  9574   9570   9573 1
  9575   9574   9575 1
  9576   9574   9576 1
  9577   9574   9578 1
  9578   9576   9577 1
  9579   9578   9579 1
  9580   9578   9580 1
  9581   9578   9582 1
  9582   9580   9581 1
  9583   9582   9583 1
  9584   9582   9584 1
  9585   9585   9586 1
  9586   9585   9587 1
  9587   9585   9599 1
  9588   9587   9588 1
  9589   9587   9589 1
  9590   9587   9604 1
  9591   9589   9590 1
  9592   9589   9591 1
  9593   9589   9602 1
  9594   9591   9592 1
  9595   9591   9593 1
  9596   9591   9600 1
  9597   9593   9594 1
  9598   9593   9595 1
  9599   9593   9599 1
  9600   9595   9596 1
  9601   9595   9597 1
  9602   9595   9598 1
  9603   9600   9601 1
  9604   9602   9603 1
  9605   9605   9606 1
  9606   9605   9607 1
  9607   9605   9622 1
  9608   9607   9608 1
  9609   9608   9609 1
  9610   9608   9610 1
  9611   9608   9614 1
  9612   9610   9611 1
  9613   9610   9612 1
  9614   9610   9613 1
  9615   9614   9615 1
  9616   9614   9616 1
  9617   9614   9618 1
  9618   9616   9617 1
  9619   9618   9619 1
  9620   9618   9620 1
  9621   9618   9622 1
  9622   9620   9621 1
  9623   9622   9623 1
  9624   9622   9624 1
  9625   9625   9626 1
  9626   9625   9627 1
  9627   9625   9639 1
  9628   9627   9628 1
  9629   9627   9629 1
  9630   9627   9644 1
  9631   9629   9630 1
  9632   9629   9631 1
  9633   9629   9642 1
  9634   9631   9632 1
  9635   9631   9633 1
  9636   9631   9640 1
  9637   9633   9634 1
  9638   9633   9635 1
  9639   9633   9639 1
  9640   9635   9636 1
  9641   9635   9637 1
  9642   9635   9638 1
  9643   9640   9641 1
  9644   9642   9643 1
  9645   9645   9646 1
  9646   9645   9647 1
  9647   9645   9662 1
  9648   9647   9648 1
  9649   9648   9649 1
  9650   9648   9650 1
  9651   9648   9654 1
  9652   9650   9651 1
  9653   9650   9652 1
  9654   9650   9653 1
  9655   9654   9655 1
  9656   9654   9656 1
  9657   9654   9658 1
  9658   9656   9657 1
  9659   9658   9659 1
  9660   9658   9660 1
  9661   9658   9662 1
  9662   9660   9661 1
  9663   9662   9663 1
  9664   9662   9664 1
  9665   9665   9666 1
  9666   9665   9667 1
  9667   9665   9676 1
  9668   9667   9668 1
  9669   9667   9669 1
  9670   9667   9680 1
  9671   9669   9670 1
  9672   9669   9671 1
  9673   9669   9678 1
  9674   9671   9672 1
  9675   9671   9673 1
  9676   9671   9677 1
  9677   9673   9674 1
  9678   9673   9675 1
  9679   9673   9676 1
  9680   9678   9679 1
  9681   9681   9682 1
  9682   9681   9683 1
  9683   9681   9694 1
  9684   9683   9684 1
  9685   9684   9685 1
  9686   9684   9686 1
  9687   9684   9687 1
  9688   9687   9688 1
  9689   9687   9689 1
  9690   9687   9690 1
  9691   9690   9691 1
  9692   9690   9692 1
  9693   9690   9694 1
  9694   9692   9693 1
  9695   9694   9695 1
  9696   9694   9696 1
  9697   9697   9698 1
  9698   9697   9699 1
  9699   9697   9708 1
  9700   9699   9700 1
  9701   9699   9701 1
  9702   9699   9712 1
  9703   9701   9702 1
  9704   9701   9703 1
  9705   9701   9710 1
  9706   9703   9704 1
  9707   9703   9705 1
  9708   9703   9709 1
  9709   9705   9706 1
  9710   9705   9707 1
  9711   9705   9708 1
  9712   9710   9711 1
  9713   9713   9714 1
  9714   9713   9715 1
  9715   9713   9726 1
  9716   9715   9716 1
  9717   9716   9717 1
  9718   9716   9718 1
  9719   9716   9719 1
  9720   9719   9720 1
  9721   9719   9721 1
  9722   9719   9722 1
  9723   9722   9723 1
  9724   9722   9724 1
  9725   9722   9726 1
  9726   9724   9725 1
  9727   9726   9727 1
  9728   9726   9728 1
  9729   9729   9730 1
  9730   9729   9731 1
  9731   9729   9744 1
  9732   9731   9732 1
  9733   9731   9733 1
  9734   9731   9748 1
  9735   9733   9734 1
  9736   9733   9735 1
  9737   9733   9746 1
  9738   9735   9736 1
  9739   9735   9737 1
  9740   9735   9745 1
  9741   9737   9738 1
  9742   9737   9739 1
  9743   9737   9744 1
  9744   9739   9740 1
  9745   9739   9741 1
  9746   9739   9742 1
  9747   9742   9743 1
  9748   9746   9747 1
  9749   9749   9750 1
  9750   9749   9751 1
  9751   9749   9766 1
  9752   9751   9752 1
  9753   9752   9753 1
  9754   9752   9754 1
  9755   9752   9759 1
  9756   9754   9755 1
  9757   9754   9756 1
  9758   9754   9757 1
  9759   9757   9758 1
  9760   9759   9760 1
  9761   9759   9761 1
  9762   9759   9762 1
  9763   9762   9763 1
  9764   9762   9764 1
  9765   9762   9766 1
  9766   9764   9765 1
  9767   9766   9767 1
  9768   9766   9768 1
  9769   9769   9770 1
  9770   9769   9771 1
  9771   9769   9783 1
  9772   9771   9772 1
  9773   9771   9773 1
  9774   9771   9787 1
  9775   9773   9774 1
  9776   9773   9775 1
  9777   9773   9785 1
  9778   9775   9776 1
  9779   9775   9777 1
  9780   9775   9784 1
  9781   9777   9778 1
  9782   9777   9779 1
  9783   9777   9783 1
  9784   9779   9780 1
  9785   9779   9781 1
  9786   9779   9782 1
  9787   9785   9786 1
  9788   9788   9789 1
  9789   9788   9790 1
  9790   9788   9804 1
  9791   9790   9791 1
  9792   9791   9792 1
  9793   9791   9793 1
  9794   9791   9797 1
  9795   9793   9794 1
  9796   9793   9795 1
  9797   9793   9796 1
  9798   9797   9798 1
  9799   9797   9799 1
  9800   9797   9800 1
  9801   9800   9801 1
  9802   9800   9802 1
  9803   9800   9804 1
  9804   9802   9803 1
  9805   9804   9805 1
  9806   9804   9806 1
  9807   9807   9808 1
  9808   9807   9809 1
  9809   9807   9822 1
  9810   9809   9810 1
  9811   9809   9811 1
  9812   9809   9826 1
  9813   9811   9812 1
  9814   9811   9813 1
  9815   9811   9824 1
  9816   9813   9814 1
  9817   9813   9815 1
  9818   9813   9823 1
  9819   9815   9816 1
  9820   9815   9817 1
  9821   9815   9822 1
  9822   9817   9818 1
  9823   9817   9819 1
  9824   9817   9820 1
  9825   9820   9821 1
  9826   9824   9825 1
  9827   9827   9828 1
  9828   9827   9829 1
  9829   9827   9844 1
  9830   9829   9830 1
  9831   9830   9831 1
  9832   9830   9832 1
  9833   9830   9837 1
  9834   9832   9833 1
  9835   9832   9834 1
  9836   9832   9835 1
  9837   9835   9836 1
  9838   9837   9838 1
  9839   9837   9839 1
  9840   9837   9840 1
  9841   9840   9841 1
  9842   9840   9842 1
  9843   9840   9844 1
  9844   9842   9843 1
  9845   9844   9845 1
  9846   9844   9846 1
  9847   9847   9848 1
  9848   9847   9849 1
  9849   9847   9861 1
  9850   9849   9850 1
  9851   9849   9851 1
  9852   9849   9865 1
  9853   9851   9852 1
  9854   9851   9853 1
  9855   9851   9863 1
  9856   9853   9854 1
  9857   9853   9855 1
  9858   9853   9862 1
  9859   9855   9856 1
  9860   9855   9857 1
  9861   9855   9861 1
  9862   9857   9858 1
  9863   9857   9859 1
  9864   9857   9860 1
  9865   9863   9864 1
  9866   9866   9867 1
  9867   9866   9868 1
  9868   9866   9882 1
  9869   9868   9869 1
  9870   9869   9870 1
  9871   9869   9871 1
  9872   9869   9875 1
  9873   9871   9872 1
  9874   9871   9873 1
  9875   9871   9874 1
  9876   9875   9876 1
  9877   9875   9877 1
  9878   9875   9878 1
  9879   9878   9879 1
  9880   9878   9880 1
  9881   9878   9882 1
  9882   9880   9881 1
  9883   9882   9883 1
  9884   9882   9884 1
  9885   9885   9886 1
  9886   9885   9887 1
  9887   9885   9900 1
  9888   9887   9888 1
  9889   9887   9889 1
  9890   9887   9904 1
  9891   9889   9890 1
  9892   9889   9891 1
  9893   9889   9902 1
  9894   9891   9892 1
  9895   9891   9893 1
  9896   9891   9901 1
  9897   9893   9894 1
  9898   9893   9895 1
  9899   9893   9900 1
  9900   9895   9896 1
  9901   9895   9897 1
  9902   9895   9898 1
  9903   9898   9899 1
  9904   9902   9903 1
  9905   9905   9906 1
  9906   9905   9907 1
  9907   9905   9922 1
  9908   9907   9908 1
  9909   9908   9909 1
  9910   9908   9910 1
  9911   9908   9915 1
  9912   9910   9911 1
  9913   9910   9912 1
  9914   9910   9913 1
  9915   9913   9914 1
  9916   9915   9916 1
  9917   9915   9917 1
  9918   9915   9918 1
  9919   9918   9919 1
  9920   9918   9920 1
  9921   9918   9922 1
  9922   9920   9921 1
  9923   9922   9923 1
  9924   9922   9924 1
  9925   9925   9926 1
  9926   9925   9927 1
  9927   9925   9940 1
  9928   9927   9928 1
  9929   9927   9929 1
  9930   9927   9944 1
  9931   9929   9930 1
  9932   9929   9931 1
  9933   9929   9942 1
  9934   9931   9932 1
  9935   9931   9933 1
  9936   9931   9941 1
  9937   9933   9934 1
  9938   9933   9935 1
  9939   9933   9940 1
  9940   9935   9936 1
  9941   9935   9937 1
  9942   9935   9938 1
  9943   9938   9939 1
  9944   9942   9943 1
  9945   9945   9946 1
  9946   9945   9947 1
  9947   9945   9962 1
  9948   9947   9948 1
  9949   9948   9949 1
  9950   9948   9950 1
  9951   9948   9955 1
  9952   9950   9951 1
  9953   9950   9952 1
  9954   9950   9953 1
  9955   9953   9954 1
  9956   9955   9956 1
  9957   9955   9957 1
  9958   9955   9958 1
  9959   9958   9959 1
  9960   9958   9960 1
  9961   9958   9962 1
  9962   9960   9961 1
  9963   9962   9963 1
  9964   9962   9964 1
  9965   9965   9966 1
  9966   9965   9967 1
  9967   9965   9980 1
  9968   9967   9968 1
  9969   9967   9969 1
  9970   9967   9984 1
  9971   9969   9970 1
  9972   9969   9971 1
  9973   9969   9982 1
  9974   9971   9972 1
  9975   9971   9973 1
  9976   9971   9981 1
  9977   9973   9974 1
  9978   9973   9975 1
  9979   9973   9980 1
  9980   9975   9976 1
  9981   9975   9977 1
  9982   9975   9978 1
  9983   9978   9979 1
  9984   9982   9983 1
  9985   9985   9986 1
  9986   9985   9987 1
  9987   9985  10002 1
  9988   9987   9988 1
  9989   9988   9989 1
  9990   9988   9990 1
  9991   9988   9995 1
  9992   9990   9991 1
  9993   9990   9992 1
  9994   9990   9993 1
  9995   9993   9994 1
  9996   9995   9996 1
  9997   9995   9997 1
  9998   9995   9998 1
  9999   9998   9999 1
 10000   9998  10000 1
 10001   9998  10002 1
 10002  10000  10001 1
 10003  10002  10003 1
 10004  10002  10004 1
 10005  10005  10006 1
 10006  10005  10007 1
 10007  10005  10020 1
 10008  10007  10008 1
 10009  10007  10009 1
 10010  10007  10024 1
 10011  10009  10010 1
 10012  10009  10011 1
 10013  10009  10022 1
 10014  10011  10012 1
 10015  10011  10013 1
 10016  10011  10021 1
 10017  10013  10014 1
 10018  10013  10015 1
 10019  10013  10020 1
 10020  10015  10016 1
 10021  10015  10017 1
 10022  10015  10018 1
 10023  10018  10019 1
 10024  10022  10023 1
 10025  10025  10026 1
 10026  10025  10027 1
 10027  10025  10042 1
 10028  10027  10028 1
 10029  10028  10029 1
 10030  10028  10030 1
 10031  10028  10035 1
 10032  10030  10031 1
 10033  10030  10032 1
 10034  10030  10033 1
 10035  10033  10034 1
 10036  10035  10036 1
 10037  10035  10037 1
 10038  10035  10038 1
 10039  10038  10039 1
 10040  10038  10040 1
 10041  10038  10042 1
 10042  10040  10041 1
 10043  10042  10043 1
 10044  10042  10044 1
 10045  10045  10046 1
 10046  10045  10047 1
 10047  10045  10058 1
 10048  10047  10048 1
 10049  10047  10049 1
 10050  10047  10062 1
 10051  10049  10050 1
 10052  10049  10051 1
 10053  10049  10060 1
 10054  10051  10052 1
 10055  10051  10053 1
 10056  10051  10059 1
 10057  10053  10054 1
 10058  10053  10055 1
 10059  10053  10058 1
 10060  10055  10056 1
 10061  10055  10057 1
 10062  10060  10061 1
 10063  10063  10064 1
 10064  10063  10065 1
 10065  10063  10078 1
 10066  10065  10066 1
 10067  10066  10067 1
 10068  10066  10068 1
 10069  10066  10071 1
 10070  10068  10069 1
 10071  10068  10070 1
 10072  10071  10072 1
 10073  10071  10073 1
 10074  10071  10074 1
 10075  10074  10075 1
 10076  10074  10076 1
 10077  10074  10078 1
 10078  10076  10077 1
 10079  10078  10079 1
 10080  10078  10080 1
 10081  10081  10082 1
 10082  10081  10083 1
 10083  10081  10095 1
 10084  10083  10084 1
 10085  10083  10085 1
 10086  10083  10099 1
 10087  10085  10086 1
 10088  10085  10087 1
 10089  10085  10097 1
 10090  10087  10088 1
 10091  10087  10089 1
 10092  10087  10096 1
 10093  10089  10090 1
 10094  10089  10091 1
 10095  10089  10095 1
 10096  10091  10092 1
 10097  10091  10093 1
 10098  10091  10094 1
 10099  10097  10098 1
 10100  10100  10101 1
 10101  10100  10102 1
 10102  10100  10116 1
 10103  10102  10103 1
 10104  10103  10104 1
 10105  10103  10105 1
 10106  10103  10109 1
 10107  10105  10106 1
 10108  10105  10107 1
 10109  10105  10108 1
 10110  10109  10110 1
 10111  10109  10111 1
 10112  10109  10112 1
 10113  10112  10113 1
 10114  10112  10114 1
 10115  10112  10116 1
 10116  10114  10115 1
 10117  10116  10117 1
 10118  10116  10118 1
 10119  10119  10120 1
 10120  10119  10121 1
 10121  10119  10130 1
 10122  10121  10122 1
 10123  10121  10123 1
 10124  10121  10134 1
 10125  10123  10124 1
 10126  10123  10125 1
 10127  10123  10132 1
 10128  10125  10126 1
 10129  10125  10127 1
 10130  10125  10131 1
 10131  10127  10128 1
 10132  10127  10129 1
 10133  10127  10130 1
 10134  10132  10133 1
 10135  10135  10136 1
 10136  10135  10137 1
 10137  10135  10148 1
 10138  10137  10138 1
 10139  10138  10139 1
 10140  10138  10140 1
 10141  10138  10141 1
 10142  10141  10142 1
 10143  10141  10143 1
 10144  10141  10144 1
 10145  10144  10145 1
 10146  10144  10146 1
 10147  10144  10148 1
 10148  10146  10147 1
 10149  10148  10149 1
 10150  10148  10150 1
 10151  10151  10152 1
 10152  10151  10153 1
 10153  10151  10166 1
 10154  10153  10154 1
 10155  10153  10155 1
 10156  10153  10170 1
 10157  10155  10156 1
 10158  10155  10157 1
 10159  10155  10168 1
 10160  10157  10158 1
 10161  10157  10159 1
 10162  10157  10167 1
 10163  10159  10160 1
 10164  10159  10161 1
 10165  10159  10166 1
 10166  10161  10162 1
 10167  10161  10163 1
 10168  10161  10164 1
 10169  10164  10165 1
 10170  10168  10169 1
 10171  10171  10172 1
 10172  10171  10173 1
 10173  10171  10188 1
 10174  10173  10174 1
 10175  10174  10175 1
 10176  10174  10176 1
 10177  10174  10181 1
 10178  10176  10177 1
 10179  10176  10178 1
 10180  10176  10179 1
 10181  10179  10180 1
 10182  10181  10182 1
 10183  10181  10183 1
 10184  10181  10184 1
 10185  10184  10185 1
 10186  10184  10186 1
 10187  10184  10188 1
 10188  10186  10187 1
 10189  10188  10189 1
 10190  10188  10190 1
 10191  10191  10192 1
 10192  10191  10193 1
 10193  10191  10204 1
 10194  10193  10194 1
 10195  10193  10195 1
 10196  10193  10208 1
 10197  10195  10196 1
 10198  10195  10197 1
 10199  10195  10206 1
 10200  10197  10198 1
 10201  10197  10199 1
 10202  10197  10205 1
 10203  10199  10200 1
 10204  10199  10201 1
 10205  10199  10204 1
 10206  10201  10202 1
 10207  10201  10203 1
 10208  10206  10207 1
 10209  10209  10210 1
 10210  10209  10211 1
 10211  10209  10224 1
 10212  10211  10212 1
 10213  10212  10213 1
 10214  10212  10214 1
 10215  10212  10217 1
 10216  10214  10215 1
 10217  10214  10216 1
 10218  10217  10218 1
 10219  10217  10219 1
 10220  10217  10220 1
 10221  10220  10221 1
 10222  10220  10222 1
 10223  10220  10224 1
 10224  10222  10223 1
 10225  10224  10225 1
 10226  10224  10226 1
 10227  10227  10228 1
 10228  10227  10229 1
 10229  10227  10238 1
 10230  10229  10230 1
 10231  10229  10231 1
 10232  10229  10242 1
 10233  10231  10232 1
 10234  10231  10233 1
 10235  10231  10240 1
 10236  10233  10234 1
 10237  10233  10235 1
 10238  10233  10239 1
 10239  10235  10236 1
 10240  10235  10237 1
 10241  10235  10238 1
 10242  10240  10241 1
 10243  10243  10244 1
 10244  10243  10245 1
 10245  10243  10256 1
 10246  10245  10246 1
 10247  10246  10247 1
 10248  10246  10248 1
 10249  10246  10249 1
 10250  10249  10250 1
 10251  10249  10251 1
 10252  10249  10252 1
 10253  10252  10253 1
 10254  10252  10254 1
 10255  10252  10256 1
 10256  10254  10255 1
 10257  10256  10257 1
 10258  10256  10258 1
 10259  10259  10260 1
 10260  10259  10261 1
 10261  10259  10272 1
 10262  10261  10262 1
 10263  10261  10263 1
 10264  10261  10276 1
 10265  10263  10264 1
 10266  10263  10265 1
 10267  10263  10274 1
 10268  10265  10266 1
 10269  10265  10267 1
 10270  10265  10273 1
 10271  10267  10268 1
 10272  10267  10269 1
 10273  10267  10272 1
 10274  10269  10270 1
 10275  10269  10271 1
 10276  10274  10275 1
 10277  10277  10278 1
 10278  10277  10279 1
 10279  10277  10292 1
 10280  10279  10280 1
 10281  10280  10281 1
 10282  10280  10282 1
 10283  10280  10285 1
 10284  10282  10283 1
 10285  10282  10284 1
 10286  10285  10286 1
 10287  10285  10287 1
 10288  10285  10288 1
 10289  10288  10289 1
 10290  10288  10290 1
 10291  10288  10292 1
 10292  10290  10291 1
 10293  10292  10293 1
 10294  10292  10294 1
 10295  10295  10296 1
 10296  10295  10297 1
 10297  10295  10306 1
 10298  10297  10298 1
 10299  10297  10299 1
 10300  10297  10310 1
 10301  10299  10300 1
 10302  10299  10301 1
 10303  10299  10309 1
 10304  10301  10302 1
 10305  10301  10303 1
 10306  10301  10307 1
 10307  10303  10304 1
 10308  10303  10305 1
 10309  10303  10306 1
 10310  10307  10308 1
 10311  10311  10312 1
 10312  10311  10313 1
 10313  10311  10324 1
 10314  10313  10314 1
 10315  10314  10315 1
 10316  10314  10316 1
 10317  10314  10317 1
 10318  10317  10318 1
 10319  10317  10319 1
 10320  10317  10321 1
 10321  10319  10320 1
 10322  10321  10322 1
 10323  10321  10323 1
 10324  10321  10324 1
 10325  10324  10325 1
 10326  10324  10326 1
 10327  10327  10328 1
 10328  10327  10329 1
 10329  10327  10338 1
 10330  10329  10330 1
 10331  10329  10331 1
 10332  10329  10342 1
 10333  10331  10332 1
 10334  10331  10333 1
 10335  10331  10341 1
 10336  10333  10334 1
 10337  10333  10335 1
 10338  10333  10339 1
 10339  10335  10336 1
 10340  10335  10337 1
 10341  10335  10338 1
 10342  10339  10340 1
 10343  10343  10344 1
 10344  10343  10345 1
 10345  10343  10356 1
 10346  10345  10346 1
 10347  10346  10347 1
 10348  10346  10348 1
 10349  10346  10349 1
 10350  10349  10350 1
 10351  10349  10351 1
 10352  10349  10353 1
 10353  10351  10352 1
 10354  10353  10354 1
 10355  10353  10355 1
 10356  10353  10356 1
 10357  10356  10357 1
 10358  10356  10358 1
 10359  10359  10360 1
 10360  10359  10361 1
 10361  10359  10374 1
 10362  10361  10362 1
 10363  10361  10363 1
 10364  10361  10378 1
 10365  10363  10364 1
 10366  10363  10365 1
 10367  10363  10377 1
 10368  10365  10366 1
 10369  10365  10367 1
 10370  10365  10375 1
 10371  10367  10368 1
 10372  10367  10369 1
 10373  10367  10374 1
 10374  10369  10370 1
 10375  10369  10371 1
 10376  10369  10372 1
 10377  10372  10373 1
 10378  10375  10376 1
 10379  10379  10380 1
 10380  10379  10381 1
 10381  10379  10396 1
 10382  10381  10382 1
 10383  10382  10383 1
 10384  10382  10384 1
 10385  10382  10389 1
 10386  10384  10385 1
 10387  10384  10386 1
 10388  10384  10387 1
 10389  10387  10388 1
 10390  10389  10390 1
 10391  10389  10391 1
 10392  10389  10393 1
 10393  10391  10392 1
 10394  10393  10394 1
 10395  10393  10395 1
 10396  10393  10396 1
 10397  10396  10397 1
 10398  10396  10398 1
 10399  10399  10400 1
 10400  10399  10401 1
 10401  10399  10413 1
 10402  10401  10402 1
 10403  10401  10403 1
 10404  10401  10417 1
 10405  10403  10404 1
 10406  10403  10405 1
 10407  10403  10416 1
 10408  10405  10406 1
 10409  10405  10407 1
 10410  10405  10414 1
 10411  10407  10408 1
 10412  10407  10409 1
 10413  10407  10413 1
 10414  10409  10410 1
 10415  10409  10411 1
 10416  10409  10412 1
 10417  10414  10415 1
 10418  10418  10419 1
 10419  10418  10420 1
 10420  10418  10434 1
 10421  10420  10421 1
 10422  10421  10422 1
 10423  10421  10423 1
 10424  10421  10427 1
 10425  10423  10424 1
 10426  10423  10425 1
 10427  10423  10426 1
 10428  10427  10428 1
 10429  10427  10429 1
 10430  10427  10431 1
 10431  10429  10430 1
 10432  10431  10432 1
 10433  10431  10433 1
 10434  10431  10434 1
 10435  10434  10435 1
 10436  10434  10436 1
 10437  10437  10438 1
 10438  10437  10439 1
 10439  10437  10452 1
 10440  10439  10440 1
 10441  10439  10441 1
 10442  10439  10456 1
 10443  10441  10442 1
 10444  10441  10443 1
 10445  10441  10455 1
 10446  10443  10444 1
 10447  10443  10445 1
 10448  10443  10453 1
 10449  10445  10446 1
 10450  10445  10447 1
 10451  10445  10452 1
 10452  10447  10448 1
 10453  10447  10449 1
 10454  10447  10450 1
 10455  10450  10451 1
 10456  10453  10454 1
 10457  10457  10458 1
 10458  10457  10459 1
 10459  10457  10474 1
 10460  10459  10460 1
 10461  10460  10461 1
 10462  10460  10462 1
 10463  10460  10467 1
 10464  10462  10463 1
 10465  10462  10464 1
 10466  10462  10465 1
 10467  10465  10466 1
 10468  10467  10468 1
 10469  10467  10469 1
 10470  10467  10471 1
 10471  10469  10470 1
 10472  10471  10472 1
 10473  10471  10473 1
 10474  10471  10474 1
 10475  10474  10475 1
 10476  10474  10476 1
 10477  10477  10478 1
 10478  10477  10479 1
 10479  10477  10491 1
 10480  10479  10480 1
 10481  10479  10481 1
 10482  10479  10495 1
 10483  10481  10482 1
 10484  10481  10483 1
 10485  10481  10494 1
 10486  10483  10484 1
 10487  10483  10485 1
 10488  10483  10492 1
 10489  10485  10486 1
 10490  10485  10487 1
 10491  10485  10491 1
 10492  10487  10488 1
 10493  10487  10489 1
 10494  10487  10490 1
 10495  10492  10493 1
 10496  10496  10497 1
 10497  10496  10498 1
 10498  10496  10512 1
 10499  10498  10499 1
 10500  10499  10500 1
 10501  10499  10501 1
 10502  10499  10505 1
 10503  10501  10502 1
 10504  10501  10503 1
 10505  10501  10504 1
 10506  10505  10506 1
 10507  10505  10507 1
 10508  10505  10509 1
 10509  10507  10508 1
 10510  10509  10510 1
 10511  10509  10511 1
 10512  10509  10512 1
 10513  10512  10513 1
 10514  10512  10514 1
 10515  10515  10516 1
 10516  10515  10517 1
 10517  10515  10530 1
 10518  10517  10518 1
 10519  10517  10519 1
 10520  10517  10534 1
 10521  10519  10520 1
 10522  10519  10521 1
 10523  10519  10533 1
 10524  10521  10522 1
 10525  10521  10523 1
 10526  10521  10531 1
 10527  10523  10524 1
 10528  10523  10525 1
 10529  10523  10530 1
 10530  10525  10526 1
 10531  10525  10527 1
 10532  10525  10528 1
 10533  10528  10529 1
 10534  10531  10532 1
 10535  10535  10536 1
 10536  10535  10537 1
 10537  10535  10552 1
 10538  10537  10538 1
 10539  10538  10539 1
 10540  10538  10540 1
 10541  10538  10545 1
 10542  10540  10541 1
 10543  10540  10542 1
 10544  10540  10543 1
 10545  10543  10544 1
 10546  10545  10546 1
 10547  10545  10547 1
 10548  10545  10549 1
 10549  10547  10548 1
 10550  10549  10550 1
 10551  10549  10551 1
 10552  10549  10552 1
 10553  10552  10553 1
 10554  10552  10554 1
 10555  10555  10556 1
 10556  10555  10557 1
 10557  10555  10570 1
 10558  10557  10558 1
 10559  10557  10559 1
 10560  10557  10574 1
 10561  10559  10560 1
 10562  10559  10561 1
 10563  10559  10573 1
 10564  10561  10562 1
 10565  10561  10563 1
 10566  10561  10571 1
 10567  10563  10564 1
 10568  10563  10565 1
 10569  10563  10570 1
 10570  10565  10566 1
 10571  10565  10567 1
 10572  10565  10568 1
 10573  10568  10569 1
 10574  10571  10572 1
 10575  10575  10576 1
 10576  10575  10577 1
 10577  10575  10592 1
 10578  10577  10578 1
 10579  10578  10579 1
 10580  10578  10580 1
 10581  10578  10585 1
 10582  10580  10581 1
 10583  10580  10582 1
 10584  10580  10583 1
 10585  10583  10584 1
 10586  10585  10586 1
 10587  10585  10587 1
 10588  10585  10589 1
 10589  10587  10588 1
 10590  10589  10590 1
 10591  10589  10591 1
 10592  10589  10592 1
 10593  10592  10593 1
 10594  10592  10594 1
 10595  10595  10596 1
 10596  10595  10597 1
 10597  10595  10610 1
 10598  10597  10598 1
 10599  10597  10599 1
 10600  10597  10614 1
 10601  10599  10600 1
 10602  10599  10601 1
 10603  10599  10613 1
 10604  10601  10602 1
 10605  10601  10603 1
 10606  10601  10611 1
 10607  10603  10604 1
 10608  10603  10605 1
 10609  10603  10610 1
 10610  10605  10606 1
 10611  10605  10607 1
 10612  10605  10608 1
 10613  10608  10609 1
 10614  10611  10612 1
 10615  10615  10616 1
 10616  10615  10617 1
 10617  10615  10632 1
 10618  10617  10618 1
 10619  10618  10619 1
 10620  10618  10620 1
 10621  10618  10625 1
 10622  10620  10621 1
 10623  10620  10622 1
 10624  10620  10623 1
 10625  10623  10624 1
 10626  10625  10626 1
 10627  10625  10627 1
 10628  10625  10629 1
 10629  10627  10628 1
 10630  10629  10630 1
 10631  10629  10631 1
 10632  10629  10632 1
 10633  10632  10633 1
 10634  10632  10634 1
 10635  10635  10636 1
 10636  10635  10637 1
 10637  10635  10650 1
 10638  10637  10638 1
 10639  10637  10639 1
 10640  10637  10654 1
 10641  10639  10640 1
 10642  10639  10641 1
 10643  10639  10653 1
 10644  10641  10642 1
 10645  10641  10643 1
 10646  10641  10651 1
 10647  10643  10644 1
 10648  10643  10645 1
 10649  10643  10650 1
 10650  10645  10646 1
 10651  10645  10647 1
 10652  10645  10648 1
 10653  10648  10649 1
 10654  10651  10652 1
 10655  10655  10656 1
 10656  10655  10657 1
 10657  10655  10672 1
 10658  10657  10658 1
 10659  10658  10659 1
 10660  10658  10660 1
 10661  10658  10665 1
 10662  10660  10661 1
 10663  10660  10662 1
 10664  10660  10663 1
 10665  10663  10664 1
 10666  10665  10666 1
 10667  10665  10667 1
 10668  10665  10669 1
 10669  10667  10668 1
 10670  10669  10670 1
 10671  10669  10671 1
 10672  10669  10672 1
 10673  10672  10673 1
 10674  10672  10674 1
 10675  10675  10676 1
 10676  10675  10677 1
 10677  10675  10688 1
 10678  10677  10678 1
 10679  10677  10679 1
 10680  10677  10692 1
 10681  10679  10680 1
 10682  10679  10681 1
 10683  10679  10691 1
 10684  10681  10682 1
 10685  10681  10683 1
 10686  10681  10689 1
 10687  10683  10684 1
 10688  10683  10685 1
 10689  10683  10688 1
 10690  10685  10686 1
 10691  10685  10687 1
 10692  10689  10690 1
 10693  10693  10694 1
 10694  10693  10695 1
 10695  10693  10708 1
 10696  10695  10696 1
 10697  10696  10697 1
 10698  10696  10698 1
 10699  10696  10701 1
 10700  10698  10699 1
 10701  10698  10700 1
 10702  10701  10702 1
 10703  10701  10703 1
 10704  10701  10705 1
 10705  10703  10704 1
 10706  10705  10706 1
 10707  10705  10707 1
 10708  10705  10708 1
 10709  10708  10709 1
 10710  10708  10710 1
 10711  10711  10712 1
 10712  10711  10713 1
 10713  10711  10725 1
 10714  10713  10714 1
 10715  10713  10715 1
 10716  10713  10729 1
 10717  10715  10716 1
 10718  10715  10717 1
 10719  10715  10728 1
 10720  10717  10718 1
 10721  10717  10719 1
 10722  10717  10726 1
 10723  10719  10720 1
 10724  10719  10721 1
 10725  10719  10725 1
 10726  10721  10722 1
 10727  10721  10723 1
 10728  10721  10724 1
 10729  10726  10727 1
 10730  10730  10731 1
 10731  10730  10732 1
 10732  10730  10746 1
 10733  10732  10733 1
 10734  10733  10734 1
 10735  10733  10735 1
 10736  10733  10739 1
 10737  10735  10736 1
 10738  10735  10737 1
 10739  10735  10738 1
 10740  10739  10740 1
 10741  10739  10741 1
 10742  10739  10743 1
 10743  10741  10742 1
 10744  10743  10744 1
 10745  10743  10745 1
 10746  10743  10746 1
 10747  10746  10747 1
 10748  10746  10748 1
 10749  10749  10750 1
 10750  10749  10751 1
 10751  10749  10760 1
 10752  10751  10752 1
 10753  10751  10753 1
 10754  10751  10764 1
 10755  10753  10754 1
 10756  10753  10755 1
 10757  10753  10763 1
 10758  10755  10756 1
 10759  10755  10757 1
 10760  10755  10761 1
 10761  10757  10758 1
 10762  10757  10759 1
 10763  10757  10760 1
 10764  10761  10762 1
 10765  10765  10766 1
 10766  10765  10767 1
 10767  10765  10778 1
 10768  10767  10768 1
 10769  10768  10769 1
 10770  10768  10770 1
 10771  10768  10771 1
 10772  10771  10772 1
 10773  10771  10773 1
 10774  10771  10775 1
 10775  10773  10774 1
 10776  10775  10776 1
 10777  10775  10777 1
 10778  10775  10778 1
 10779  10778  10779 1
 10780  10778  10780 1
 10781  10781  10782 1
 10782  10781  10783 1
 10783  10781  10796 1
 10784  10783  10784 1
 10785  10783  10785 1
 10786  10783  10800 1
 10787  10785  10786 1
 10788  10785  10787 1
 10789  10785  10799 1
 10790  10787  10788 1
 10791  10787  10789 1
 10792  10787  10797 1
 10793  10789  10790 1
 10794  10789  10791 1
 10795  10789  10796 1
 10796  10791  10792 1
 10797  10791  10793 1
 10798  10791  10794 1
 10799  10794  10795 1
 10800  10797  10798 1
 10801  10801  10802 1
 10802  10801  10803 1
 10803  10801  10818 1
 10804  10803  10804 1
 10805  10804  10805 1
 10806  10804  10806 1
 10807  10804  10811 1
 10808  10806  10807 1
 10809  10806  10808 1
 10810  10806  10809 1
 10811  10809  10810 1
 10812  10811  10812 1
 10813  10811  10813 1
 10814  10811  10815 1
 10815  10813  10814 1
 10816  10815  10816 1
 10817  10815  10817 1
 10818  10815  10818 1
 10819  10818  10819 1
 10820  10818  10820 1
 10821  10821  10822 1
 10822  10821  10823 1
 10823  10821  10834 1
 10824  10823  10824 1
 10825  10823  10825 1
 10826  10823  10838 1
 10827  10825  10826 1
 10828  10825  10827 1
 10829  10825  10837 1
 10830  10827  10828 1
 10831  10827  10829 1
 10832  10827  10835 1
 10833  10829  10830 1
 10834  10829  10831 1
 10835  10829  10834 1
 10836  10831  10832 1
 10837  10831  10833 1
 10838  10835  10836 1
 10839  10839  10840 1
 10840  10839  10841 1
 10841  10839  10854 1
 10842  10841  10842 1
 10843  10842  10843 1
 10844  10842  10844 1
 10845  10842  10847 1
 10846  10844  10845 1
 10847  10844  10846 1
 10848  10847  10848 1
 10849  10847  10849 1
 10850  10847  10851 1
 10851  10849  10850 1
 10852  10851  10852 1
 10853  10851  10853 1
 10854  10851  10854 1
 10855  10854  10855 1
 10856  10854  10856 1
 10857  10857  10858 1
 10858  10857  10859 1
 10859  10857  10868 1
 10860  10859  10860 1
 10861  10859  10861 1
 10862  10859  10872 1
 10863  10861  10862 1
 10864  10861  10863 1
 10865  10861  10871 1
 10866  10863  10864 1
 10867  10863  10865 1
 10868  10863  10869 1
 10869  10865  10866 1
 10870  10865  10867 1
 10871  10865  10868 1
 10872  10869  10870 1
 10873  10873  10874 1
 10874  10873  10875 1
 10875  10873  10886 1
 10876  10875  10876 1
 10877  10876  10877 1
 10878  10876  10878 1
 10879  10876  10879 1
 10880  10879  10880 1
 10881  10879  10881 1
 10882  10879  10883 1
 10883  10881  10882 1
 10884  10883  10884 1
 10885  10883  10885 1
 10886  10883  10886 1
 10887  10886  10887 1
 10888  10886  10888 1
 10889  10889  10890 1
 10890  10889  10891 1
 10891  10889  10902 1
 10892  10891  10892 1
 10893  10891  10893 1
 10894  10891  10906 1
 10895  10893  10894 1
 10896  10893  10895 1
 10897  10893  10905 1
 10898  10895  10896 1
 10899  10895  10897 1
 10900  10895  10903 1
 10901  10897  10898 1
 10902  10897  10899 1
 10903  10897  10902 1
 10904  10899  10900 1
 10905  10899  10901 1
 10906  10903  10904 1
 10907  10907  10908 1
 10908  10907  10909 1
 10909  10907  10922 1
 10910  10909  10910 1
 10911  10910  10911 1
 10912  10910  10912 1
 10913  10910  10915 1
 10914  10912  10913 1
 10915  10912  10914 1
 10916  10915  10916 1
 10917  10915  10917 1
 10918  10915  10919 1
 10919  10917  10918 1
 10920  10919  10920 1
 10921  10919  10921 1
 10922  10919  10922 1
 10923  10922  10923 1
 10924  10922  10924 1
@<TRIPOS>SUBSTRUCTURE
    1      0AA      1 ****               0 ****  **** 
    2      0AB     19 ****               0 ****  **** 
    3      0BA     37 ****               0 ****  **** 
    4      0BB     59 ****               0 ****  **** 
    5      0CA     81 ****               0 ****  **** 
    6      0CB    103 ****               0 ****  **** 
    7      0DA    125 ****               0 ****  **** 
    8      0DB    143 ****               0 ****  **** 
    9      0EA    161 ****               0 ****  **** 
   10      0EB    183 ****               0 ****  **** 
   11      0FA    205 ****               0 ****  **** 
   12      0FB    226 ****               0 ****  **** 
   13      0GA    247 ****               0 ****  **** 
   14      0GB    269 ****               0 ****  **** 
   15      0HA    291 ****               0 ****  **** 
   16      0HB    312 ****               0 ****  **** 
   17      0JA    333 ****               0 ****  **** 
   18      0JB    355 ****               0 ****  **** 
   19      0KA    377 ****               0 ****  **** 
   20      0KB    399 ****               0 ****  **** 
   21      0LA    421 ****               0 ****  **** 
   22      0LB    443 ****               0 ****  **** 
   23      0MA    465 ****               0 ****  **** 
   24      0MB    487 ****               0 ****  **** 
   25      0NA    509 ****               0 ****  **** 
   26      0NB    531 ****               0 ****  **** 
   27      0OA    553 ****               0 ****  **** 
   28      0OB    573 ****               0 ****  **** 
   29      0PA    593 ****               0 ****  **** 
   30      0PB    615 ****               0 ****  **** 
   31      0QA    637 ****               0 ****  **** 
   32      0QB    658 ****               0 ****  **** 
   33      0RA    679 ****               0 ****  **** 
   34      0RB    697 ****               0 ****  **** 
   35      0SA    715 ****               0 ****  **** 
   36      0SB    752 ****               0 ****  **** 
   37      0TA    789 ****               0 ****  **** 
   38      0TB    811 ****               0 ****  **** 
   39      0UA    833 ****               0 ****  **** 
   40      0UB    853 ****               0 ****  **** 
   41      0VA    873 ****               0 ****  **** 
   42      0VB    901 ****               0 ****  **** 
   43      0WA    929 ****               0 ****  **** 
   44      0WB    957 ****               0 ****  **** 
   45      0XA    985 ****               0 ****  **** 
   46      0XB   1003 ****               0 ****  **** 
   47      0YA   1021 ****               0 ****  **** 
   48      0YB   1049 ****               0 ****  **** 
   49      0ZA   1077 ****               0 ****  **** 
   50      0ZB   1097 ****               0 ****  **** 
   51      1AA   1117 ****               0 ****  **** 
   52      1AB   1136 ****               0 ****  **** 
   53      1BA   1155 ****               0 ****  **** 
   54      1BB   1176 ****               0 ****  **** 
   55      1CA   1197 ****               0 ****  **** 
   56      1CB   1218 ****               0 ****  **** 
   57      1DA   1239 ****               0 ****  **** 
   58      1DB   1258 ****               0 ****  **** 
   59      1EA   1277 ****               0 ****  **** 
   60      1EB   1300 ****               0 ****  **** 
   61      1FA   1323 ****               0 ****  **** 
   62      1FB   1345 ****               0 ****  **** 
   63      1GA   1367 ****               0 ****  **** 
   64      1GB   1390 ****               0 ****  **** 
   65      1HA   1413 ****               0 ****  **** 
   66      1HB   1435 ****               0 ****  **** 
   67      1JA   1457 ****               0 ****  **** 
   68      1JB   1478 ****               0 ****  **** 
   69      1KA   1499 ****               0 ****  **** 
   70      1KB   1522 ****               0 ****  **** 
   71      1LA   1545 ****               0 ****  **** 
   72      1LB   1568 ****               0 ****  **** 
   73      1MA   1591 ****               0 ****  **** 
   74      1MB   1614 ****               0 ****  **** 
   75      1NA   1637 ****               0 ****  **** 
   76      1NB   1660 ****               0 ****  **** 
   77      1OA   1683 ****               0 ****  **** 
   78      1OB   1704 ****               0 ****  **** 
   79      1PA   1725 ****               0 ****  **** 
   80      1PB   1746 ****               0 ****  **** 
   81      1QA   1767 ****               0 ****  **** 
   82      1QB   1789 ****               0 ****  **** 
   83      1RA   1811 ****               0 ****  **** 
   84      1RB   1830 ****               0 ****  **** 
   85      1TA   1849 ****               0 ****  **** 
   86      1TB   1872 ****               0 ****  **** 
   87      1UA   1895 ****               0 ****  **** 
   88      1UB   1916 ****               0 ****  **** 
   89      1VA   1937 ****               0 ****  **** 
   90      1VB   1966 ****               0 ****  **** 
   91      1WA   1995 ****               0 ****  **** 
   92      1WB   2024 ****               0 ****  **** 
   93      1XA   2053 ****               0 ****  **** 
   94      1XB   2072 ****               0 ****  **** 
   95      1YA   2091 ****               0 ****  **** 
   96      1YB   2120 ****               0 ****  **** 
   97      1ZA   2149 ****               0 ****  **** 
   98      1ZB   2170 ****               0 ****  **** 
   99      2AA   2191 ****               0 ****  **** 
  100      2AB   2208 ****               0 ****  **** 
  101      2BA   2225 ****               0 ****  **** 
  102      2BB   2248 ****               0 ****  **** 
  103      2CA   2271 ****               0 ****  **** 
  104      2CB   2294 ****               0 ****  **** 
  105      2DA   2317 ****               0 ****  **** 
  106      2DB   2334 ****               0 ****  **** 
  107      2EA   2351 ****               0 ****  **** 
  108      2EB   2372 ****               0 ****  **** 
  109      2FA   2393 ****               0 ****  **** 
  110      2FB   2413 ****               0 ****  **** 
  111      2GA   2433 ****               0 ****  **** 
  112      2GB   2454 ****               0 ****  **** 
  113      2HA   2475 ****               0 ****  **** 
  114      2HB   2495 ****               0 ****  **** 
  115      2JA   2515 ****               0 ****  **** 
  116      2JB   2538 ****               0 ****  **** 
  117      2KA   2561 ****               0 ****  **** 
  118      2KB   2582 ****               0 ****  **** 
  119      2LA   2603 ****               0 ****  **** 
  120      2LB   2624 ****               0 ****  **** 
  121      2MA   2645 ****               0 ****  **** 
  122      2MB   2666 ****               0 ****  **** 
  123      2NA   2687 ****               0 ****  **** 
  124      2NB   2708 ****               0 ****  **** 
  125      2OA   2729 ****               0 ****  **** 
  126      2OB   2748 ****               0 ****  **** 
  127      2PA   2767 ****               0 ****  **** 
  128      2PB   2790 ****               0 ****  **** 
  129      2QA   2813 ****               0 ****  **** 
  130      2QB   2833 ****               0 ****  **** 
  131      2RA   2853 ****               0 ****  **** 
  132      2RB   2870 ****               0 ****  **** 
  133      2TA   2887 ****               0 ****  **** 
  134      2TB   2908 ****               0 ****  **** 
  135      2UA   2929 ****               0 ****  **** 
  136      2UB   2948 ****               0 ****  **** 
  137      2XA   2967 ****               0 ****  **** 
  138      2XB   2984 ****               0 ****  **** 
  139      2ZA   3001 ****               0 ****  **** 
  140      2ZB   3020 ****               0 ****  **** 
  141      3AA   3039 ****               0 ****  **** 
  142      3AB   3056 ****               0 ****  **** 
  143      3BA   3073 ****               0 ****  **** 
  144      3BB   3094 ****               0 ****  **** 
  145      3CA   3115 ****               0 ****  **** 
  146      3CB   3136 ****               0 ****  **** 
  147      3DA   3157 ****               0 ****  **** 
  148      3DB   3174 ****               0 ****  **** 
  149      3EA   3191 ****               0 ****  **** 
  150      3EB   3212 ****               0 ****  **** 
  151      3FA   3233 ****               0 ****  **** 
  152      3FB   3253 ****               0 ****  **** 
  153      3GA   3273 ****               0 ****  **** 
  154      3GB   3294 ****               0 ****  **** 
  155      3HA   3315 ****               0 ****  **** 
  156      3HB   3335 ****               0 ****  **** 
  157      3JA   3355 ****               0 ****  **** 
  158      3JB   3376 ****               0 ****  **** 
  159      3KA   3397 ****               0 ****  **** 
  160      3KB   3418 ****               0 ****  **** 
  161      3LA   3439 ****               0 ****  **** 
  162      3LB   3460 ****               0 ****  **** 
  163      3MA   3481 ****               0 ****  **** 
  164      3MB   3502 ****               0 ****  **** 
  165      3NA   3523 ****               0 ****  **** 
  166      3NB   3544 ****               0 ****  **** 
  167      3OA   3565 ****               0 ****  **** 
  168      3OB   3584 ****               0 ****  **** 
  169      3PA   3603 ****               0 ****  **** 
  170      3PB   3624 ****               0 ****  **** 
  171      3QA   3645 ****               0 ****  **** 
  172      3QB   3665 ****               0 ****  **** 
  173      3RA   3685 ****               0 ****  **** 
  174      3RB   3702 ****               0 ****  **** 
  175      3TA   3719 ****               0 ****  **** 
  176      3TB   3740 ****               0 ****  **** 
  177      3UA   3761 ****               0 ****  **** 
  178      3UB   3780 ****               0 ****  **** 
  179      3VA   3799 ****               0 ****  **** 
  180      3VB   3826 ****               0 ****  **** 
  181      3WA   3853 ****               0 ****  **** 
  182      3WB   3880 ****               0 ****  **** 
  183      3XA   3907 ****               0 ****  **** 
  184      3XB   3924 ****               0 ****  **** 
  185      3YA   3941 ****               0 ****  **** 
  186      3YB   3968 ****               0 ****  **** 
  187      3ZA   3995 ****               0 ****  **** 
  188      3ZB   4014 ****               0 ****  **** 
  189      4AA   4033 ****               0 ****  **** 
  190      4AB   4050 ****               0 ****  **** 
  191      4BA   4067 ****               0 ****  **** 
  192      4BB   4088 ****               0 ****  **** 
  193      4CA   4109 ****               0 ****  **** 
  194      4CB   4130 ****               0 ****  **** 
  195      4DA   4151 ****               0 ****  **** 
  196      4DB   4168 ****               0 ****  **** 
  197      4EA   4185 ****               0 ****  **** 
  198      4EB   4206 ****               0 ****  **** 
  199      4FA   4227 ****               0 ****  **** 
  200      4FB   4247 ****               0 ****  **** 
  201      4GA   4267 ****               0 ****  **** 
  202      4GB   4288 ****               0 ****  **** 
  203      4HA   4309 ****               0 ****  **** 
  204      4HB   4329 ****               0 ****  **** 
  205      4JA   4349 ****               0 ****  **** 
  206      4JB   4370 ****               0 ****  **** 
  207      4KA   4391 ****               0 ****  **** 
  208      4KB   4412 ****               0 ****  **** 
  209      4LA   4433 ****               0 ****  **** 
  210      4LB   4454 ****               0 ****  **** 
  211      4MA   4475 ****               0 ****  **** 
  212      4MB   4496 ****               0 ****  **** 
  213      4NA   4517 ****               0 ****  **** 
  214      4NB   4538 ****               0 ****  **** 
  215      4OA   4559 ****               0 ****  **** 
  216      4OB   4578 ****               0 ****  **** 
  217      4PA   4597 ****               0 ****  **** 
  218      4PB   4618 ****               0 ****  **** 
  219      4QA   4639 ****               0 ****  **** 
  220      4QB   4659 ****               0 ****  **** 
  221      4RA   4679 ****               0 ****  **** 
  222      4RB   4696 ****               0 ****  **** 
  223      4SA   4713 ****               0 ****  **** 
  224      4SB   4749 ****               0 ****  **** 
  225      4TA   4785 ****               0 ****  **** 
  226      4TB   4806 ****               0 ****  **** 
  227      4UA   4827 ****               0 ****  **** 
  228      4UB   4846 ****               0 ****  **** 
  229      4VA   4865 ****               0 ****  **** 
  230      4VB   4892 ****               0 ****  **** 
  231      4WA   4919 ****               0 ****  **** 
  232      4WB   4946 ****               0 ****  **** 
  233      4XA   4973 ****               0 ****  **** 
  234      4XB   4990 ****               0 ****  **** 
  235      4YA   5007 ****               0 ****  **** 
  236      4YB   5034 ****               0 ****  **** 
  237      4ZA   5061 ****               0 ****  **** 
  238      4ZB   5080 ****               0 ****  **** 
  239      6EA   5099 ****               0 ****  **** 
  240      6EB   5120 ****               0 ****  **** 
  241      6GA   5141 ****               0 ****  **** 
  242      6GB   5162 ****               0 ****  **** 
  243      6KA   5183 ****               0 ****  **** 
  244      6KB   5204 ****               0 ****  **** 
  245      6LA   5225 ****               0 ****  **** 
  246      6LB   5246 ****               0 ****  **** 
  247      6MA   5267 ****               0 ****  **** 
  248      6MB   5288 ****               0 ****  **** 
  249      6NA   5309 ****               0 ****  **** 
  250      6NB   5330 ****               0 ****  **** 
  251      6TA   5351 ****               0 ****  **** 
  252      6TB   5372 ****               0 ****  **** 
  253      6VA   5393 ****               0 ****  **** 
  254      6VB   5420 ****               0 ****  **** 
  255      6WA   5447 ****               0 ****  **** 
  256      6WB   5474 ****               0 ****  **** 
  257      6YA   5501 ****               0 ****  **** 
  258      6YB   5528 ****               0 ****  **** 
  259      7SA   5555 ****               0 ****  **** 
  260      7SB   5591 ****               0 ****  **** 
  261      8SA   5627 ****               0 ****  **** 
  262      8SB   5663 ****               0 ****  **** 
  263      9SA   5699 ****               0 ****  **** 
  264      9SB   5735 ****               0 ****  **** 
  265      PEA   5771 ****               0 ****  **** 
  266      PEB   5789 ****               0 ****  **** 
  267      PGA   5807 ****               0 ****  **** 
  268      PGB   5825 ****               0 ****  **** 
  269      PKA   5843 ****               0 ****  **** 
  270      PKB   5861 ****               0 ****  **** 
  271      PLA   5879 ****               0 ****  **** 
  272      PLB   5897 ****               0 ****  **** 
  273      PMA   5915 ****               0 ****  **** 
  274      PMB   5933 ****               0 ****  **** 
  275      PNA   5951 ****               0 ****  **** 
  276      PNB   5969 ****               0 ****  **** 
  277      PTA   5987 ****               0 ****  **** 
  278      PTB   6005 ****               0 ****  **** 
  279      QEA   6023 ****               0 ****  **** 
  280      QEB   6042 ****               0 ****  **** 
  281      QGA   6061 ****               0 ****  **** 
  282      QGB   6080 ****               0 ****  **** 
  283      QKA   6099 ****               0 ****  **** 
  284      QKB   6118 ****               0 ****  **** 
  285      QLA   6137 ****               0 ****  **** 
  286      QLB   6156 ****               0 ****  **** 
  287      QMA   6175 ****               0 ****  **** 
  288      QMB   6194 ****               0 ****  **** 
  289      QNA   6213 ****               0 ****  **** 
  290      QNB   6232 ****               0 ****  **** 
  291      QTA   6251 ****               0 ****  **** 
  292      QTB   6270 ****               0 ****  **** 
  293      QVA   6289 ****               0 ****  **** 
  294      QVB   6314 ****               0 ****  **** 
  295      QWA   6339 ****               0 ****  **** 
  296      QWB   6364 ****               0 ****  **** 
  297      QYA   6389 ****               0 ****  **** 
  298      QYB   6414 ****               0 ****  **** 
  299      REA   6439 ****               0 ****  **** 
  300      REB   6458 ****               0 ****  **** 
  301      RGA   6477 ****               0 ****  **** 
  302      RGB   6496 ****               0 ****  **** 
  303      RKA   6515 ****               0 ****  **** 
  304      RKB   6534 ****               0 ****  **** 
  305      RLA   6553 ****               0 ****  **** 
  306      RLB   6572 ****               0 ****  **** 
  307      RMA   6591 ****               0 ****  **** 
  308      RMB   6610 ****               0 ****  **** 
  309      RNA   6629 ****               0 ****  **** 
  310      RNB   6648 ****               0 ****  **** 
  311      RTA   6667 ****               0 ****  **** 
  312      RTB   6686 ****               0 ****  **** 
  313      SEA   6705 ****               0 ****  **** 
  314      SEB   6724 ****               0 ****  **** 
  315      SGA   6743 ****               0 ****  **** 
  316      SGB   6762 ****               0 ****  **** 
  317      SKA   6781 ****               0 ****  **** 
  318      SKB   6800 ****               0 ****  **** 
  319      SLA   6819 ****               0 ****  **** 
  320      SLB   6838 ****               0 ****  **** 
  321      SMA   6857 ****               0 ****  **** 
  322      SMB   6876 ****               0 ****  **** 
  323      SNA   6895 ****               0 ****  **** 
  324      SNB   6914 ****               0 ****  **** 
  325      STA   6933 ****               0 ****  **** 
  326      STB   6952 ****               0 ****  **** 
  327      TAA   6971 ****               0 ****  **** 
  328      TAB   6986 ****               0 ****  **** 
  329      TDA   7001 ****               0 ****  **** 
  330      TDB   7016 ****               0 ****  **** 
  331      TEA   7031 ****               0 ****  **** 
  332      TEB   7050 ****               0 ****  **** 
  333      TFA   7069 ****               0 ****  **** 
  334      TFB   7087 ****               0 ****  **** 
  335      TGA   7105 ****               0 ****  **** 
  336      TGB   7124 ****               0 ****  **** 
  337      THA   7143 ****               0 ****  **** 
  338      THB   7161 ****               0 ****  **** 
  339      TKA   7179 ****               0 ****  **** 
  340      TKB   7198 ****               0 ****  **** 
  341      TLA   7217 ****               0 ****  **** 
  342      TLB   7236 ****               0 ****  **** 
  343      TMA   7255 ****               0 ****  **** 
  344      TMB   7274 ****               0 ****  **** 
  345      TNA   7293 ****               0 ****  **** 
  346      TNB   7312 ****               0 ****  **** 
  347      TOA   7331 ****               0 ****  **** 
  348      TOB   7348 ****               0 ****  **** 
  349      TQA   7365 ****               0 ****  **** 
  350      TQB   7383 ****               0 ****  **** 
  351      TRA   7401 ****               0 ****  **** 
  352      TRB   7416 ****               0 ****  **** 
  353      TTA   7431 ****               0 ****  **** 
  354      TTB   7450 ****               0 ****  **** 
  355      TUA   7469 ****               0 ****  **** 
  356      TUB   7486 ****               0 ****  **** 
  357      TXA   7503 ****               0 ****  **** 
  358      TXB   7518 ****               0 ****  **** 
  359      TZA   7533 ****               0 ****  **** 
  360      TZB   7550 ****               0 ****  **** 
  361      UEA   7567 ****               0 ****  **** 
  362      UEB   7587 ****               0 ****  **** 
  363      UGA   7607 ****               0 ****  **** 
  364      UGB   7627 ****               0 ****  **** 
  365      UKA   7647 ****               0 ****  **** 
  366      UKB   7667 ****               0 ****  **** 
  367      ULA   7687 ****               0 ****  **** 
  368      ULB   7707 ****               0 ****  **** 
  369      UMA   7727 ****               0 ****  **** 
  370      UMB   7747 ****               0 ****  **** 
  371      UNA   7767 ****               0 ****  **** 
  372      UNB   7787 ****               0 ****  **** 
  373      UTA   7807 ****               0 ****  **** 
  374      UTB   7827 ****               0 ****  **** 
  375      UVA   7847 ****               0 ****  **** 
  376      UVB   7873 ****               0 ****  **** 
  377      UWA   7899 ****               0 ****  **** 
  378      UWB   7925 ****               0 ****  **** 
  379      UYA   7951 ****               0 ****  **** 
  380      UYB   7977 ****               0 ****  **** 
  381      VEA   8003 ****               0 ****  **** 
  382      VEB   8023 ****               0 ****  **** 
  383      VGA   8043 ****               0 ****  **** 
  384      VGB   8063 ****               0 ****  **** 
  385      VKA   8083 ****               0 ****  **** 
  386      VKB   8103 ****               0 ****  **** 
  387      VLA   8123 ****               0 ****  **** 
  388      VLB   8143 ****               0 ****  **** 
  389      VMA   8163 ****               0 ****  **** 
  390      VMB   8183 ****               0 ****  **** 
  391      VNA   8203 ****               0 ****  **** 
  392      VNB   8223 ****               0 ****  **** 
  393      VTA   8243 ****               0 ****  **** 
  394      VTB   8263 ****               0 ****  **** 
  395      VVA   8283 ****               0 ****  **** 
  396      VVB   8309 ****               0 ****  **** 
  397      VWA   8335 ****               0 ****  **** 
  398      VWB   8361 ****               0 ****  **** 
  399      VYA   8387 ****               0 ****  **** 
  400      VYB   8413 ****               0 ****  **** 
  401      WAA   8439 ****               0 ****  **** 
  402      WAB   8455 ****               0 ****  **** 
  403      WBA   8471 ****               0 ****  **** 
  404      WBB   8491 ****               0 ****  **** 
  405      WCA   8511 ****               0 ****  **** 
  406      WCB   8531 ****               0 ****  **** 
  407      WDA   8551 ****               0 ****  **** 
  408      WDB   8567 ****               0 ****  **** 
  409      WEA   8583 ****               0 ****  **** 
  410      WEB   8603 ****               0 ****  **** 
  411      WFA   8623 ****               0 ****  **** 
  412      WFB   8642 ****               0 ****  **** 
  413      WGA   8661 ****               0 ****  **** 
  414      WGB   8681 ****               0 ****  **** 
  415      WHA   8701 ****               0 ****  **** 
  416      WHB   8720 ****               0 ****  **** 
  417      WJA   8739 ****               0 ****  **** 
  418      WJB   8759 ****               0 ****  **** 
  419      WKA   8779 ****               0 ****  **** 
  420      WKB   8799 ****               0 ****  **** 
  421      WLA   8819 ****               0 ****  **** 
  422      WLB   8839 ****               0 ****  **** 
  423      WMA   8859 ****               0 ****  **** 
  424      WMB   8879 ****               0 ****  **** 
  425      WNA   8899 ****               0 ****  **** 
  426      WNB   8919 ****               0 ****  **** 
  427      WOA   8939 ****               0 ****  **** 
  428      WOB   8957 ****               0 ****  **** 
  429      WPA   8975 ****               0 ****  **** 
  430      WPB   8995 ****               0 ****  **** 
  431      WQA   9015 ****               0 ****  **** 
  432      WQB   9034 ****               0 ****  **** 
  433      WRA   9053 ****               0 ****  **** 
  434      WRB   9069 ****               0 ****  **** 
  435      WTA   9085 ****               0 ****  **** 
  436      WTB   9105 ****               0 ****  **** 
  437      WUA   9125 ****               0 ****  **** 
  438      WUB   9143 ****               0 ****  **** 
  439      WVA   9161 ****               0 ****  **** 
  440      WVB   9187 ****               0 ****  **** 
  441      WWA   9213 ****               0 ****  **** 
  442      WWB   9239 ****               0 ****  **** 
  443      WXA   9265 ****               0 ****  **** 
  444      WXB   9281 ****               0 ****  **** 
  445      WYA   9297 ****               0 ****  **** 
  446      WYB   9323 ****               0 ****  **** 
  447      WZA   9349 ****               0 ****  **** 
  448      WZB   9367 ****               0 ****  **** 
  449      XEA   9385 ****               0 ****  **** 
  450      XEB   9405 ****               0 ****  **** 
  451      XGA   9425 ****               0 ****  **** 
  452      XGB   9445 ****               0 ****  **** 
  453      XKA   9465 ****               0 ****  **** 
  454      XKB   9485 ****               0 ****  **** 
  455      XLA   9505 ****               0 ****  **** 
  456      XLB   9525 ****               0 ****  **** 
  457      XMA   9545 ****               0 ****  **** 
  458      XMB   9565 ****               0 ****  **** 
  459      XNA   9585 ****               0 ****  **** 
  460      XNB   9605 ****               0 ****  **** 
  461      XTA   9625 ****               0 ****  **** 
  462      XTB   9645 ****               0 ****  **** 
  463      YAA   9665 ****               0 ****  **** 
  464      YAB   9681 ****               0 ****  **** 
  465      YDA   9697 ****               0 ****  **** 
  466      YDB   9713 ****               0 ****  **** 
  467      YEA   9729 ****               0 ****  **** 
  468      YEB   9749 ****               0 ****  **** 
  469      YFA   9769 ****               0 ****  **** 
  470      YFB   9788 ****               0 ****  **** 
  471      YGA   9807 ****               0 ****  **** 
  472      YGB   9827 ****               0 ****  **** 
  473      YHA   9847 ****               0 ****  **** 
  474      YHB   9866 ****               0 ****  **** 
  475      YKA   9885 ****               0 ****  **** 
  476      YKB   9905 ****               0 ****  **** 
  477      YLA   9925 ****               0 ****  **** 
  478      YLB   9945 ****               0 ****  **** 
  479      YMA   9965 ****               0 ****  **** 
  480      YMB   9985 ****               0 ****  **** 
  481      YNA  10005 ****               0 ****  **** 
  482      YNB  10025 ****               0 ****  **** 
  483      YOA  10045 ****               0 ****  **** 
  484      YOB  10063 ****               0 ****  **** 
  485      YQA  10081 ****               0 ****  **** 
  486      YQB  10100 ****               0 ****  **** 
  487      YRA  10119 ****               0 ****  **** 
  488      YRB  10135 ****               0 ****  **** 
  489      YTA  10151 ****               0 ****  **** 
  490      YTB  10171 ****               0 ****  **** 
  491      YUA  10191 ****               0 ****  **** 
  492      YUB  10209 ****               0 ****  **** 
  493      YXA  10227 ****               0 ****  **** 
  494      YXB  10243 ****               0 ****  **** 
  495      YZA  10259 ****               0 ****  **** 
  496      YZB  10277 ****               0 ****  **** 
  497      ZAA  10295 ****               0 ****  **** 
  498      ZAB  10311 ****               0 ****  **** 
  499      ZDA  10327 ****               0 ****  **** 
  500      ZDB  10343 ****               0 ****  **** 
  501      ZEA  10359 ****               0 ****  **** 
  502      ZEB  10379 ****               0 ****  **** 
  503      ZFA  10399 ****               0 ****  **** 
  504      ZFB  10418 ****               0 ****  **** 
  505      ZGA  10437 ****               0 ****  **** 
  506      ZGB  10457 ****               0 ****  **** 
  507      ZHA  10477 ****               0 ****  **** 
  508      ZHB  10496 ****               0 ****  **** 
  509      ZKA  10515 ****               0 ****  **** 
  510      ZKB  10535 ****               0 ****  **** 
  511      ZLA  10555 ****               0 ****  **** 
  512      ZLB  10575 ****               0 ****  **** 
  513      ZMA  10595 ****               0 ****  **** 
  514      ZMB  10615 ****               0 ****  **** 
  515      ZNA  10635 ****               0 ****  **** 
  516      ZNB  10655 ****               0 ****  **** 
  517      ZOA  10675 ****               0 ****  **** 
  518      ZOB  10693 ****               0 ****  **** 
  519      ZQA  10711 ****               0 ****  **** 
  520      ZQB  10730 ****               0 ****  **** 
  521      ZRA  10749 ****               0 ****  **** 
  522      ZRB  10765 ****               0 ****  **** 
  523      ZTA  10781 ****               0 ****  **** 
  524      ZTB  10801 ****               0 ****  **** 
  525      ZUA  10821 ****               0 ****  **** 
  526      ZUB  10839 ****               0 ****  **** 
  527      ZXA  10857 ****               0 ****  **** 
  528      ZXB  10873 ****               0 ****  **** 
  529      ZZA  10889 ****               0 ****  **** 
  530      ZZB  10907 ****               0 ****  **** 
