@<TRIPOS>MOLECULE
glycoprotein
 162 153 12 0 1
SMALL
USER_CHARGES
@<TRIPOS>ATOM
     1    N   -0.898   -1.936   -0.752    N     1     CNLN  -0.382100
     2    H   -0.314   -2.760   -0.752    H     1     CNLN   0.268100
     3   CA   -0.254   -0.638   -0.752   CX     1     CNLN  -0.208000
     4   HA   -0.552   -0.083   -1.641   H1     1     CNLN   0.135800
     5   CB   -0.647    0.170    0.481   2C     1     CNLN  -0.229900
     6  HB2   -1.727    0.318    0.490   HC     1     CNLN   0.102300
     7  HB3   -0.346   -0.368    1.380   HC     1     CNLN   0.102300
     8   CG    0.030    1.534    0.481    C     1     CNLN   0.715300
     9  OD1    0.782    1.857   -0.437    O     1     CNLN  -0.601000
    10  ND2   -0.239    2.334    1.514    N     1     CNLN  -0.687400
    11 HD21   -0.864    2.021    2.243    H     1     CNLN   0.415000
    12    C    1.262   -0.778   -0.752    C     1     CNLN   0.805000
    13    O    1.785   -1.890   -0.752   O2     1     CNLN  -0.814700
    14  OXT    1.981    0.219   -0.752   O2     1     CNLN  -0.814700
    15    N   -1.232   -0.504    0.111    N     2     COLP  -0.280000
    16   CD   -0.257   -1.585    0.191   CT     2     COLP  -0.298300
    17  HD2   -0.139   -2.042   -0.792   H1     2     COLP   0.110400
    18  HD3   -0.603   -2.335    0.901   H1     2     COLP   0.110400
    19   CG    0.988   -0.889    0.655   CT     2     COLP   0.425500
    20  HG2    1.854   -1.320    0.154   H1     2     COLP  -0.007300
    21  OD1    1.125   -1.050    2.052   Os     2     COLP  -0.539100
    22   CB    0.810    0.567    0.296   CT     2     COLP   0.144000
    23  HB2    1.410    0.800   -0.583   HC     2     COLP  -0.045300
    24  HB3    1.131    1.190    1.131   HC     2     COLP  -0.045300
    25   CA   -0.626    0.810    0.006   CX     2     COLP  -0.133600
    26   HA   -0.948    1.427    0.845   H1     2     COLP   0.046500
    27    C   -1.054    1.465   -1.299    C     2     COLP   0.973500
    28    O   -1.805    0.878   -2.075   O2     2     COLP  -0.827700
    29  OXT   -0.654    2.589   -1.593   O2     2     COLP  -0.827700
    30    N   -0.925   -1.362   -0.447    N     3     COLS  -0.382100
    31    H   -0.341   -2.187   -0.447    H     3     COLS   0.268100
    32   CA   -0.281   -0.065   -0.447   CX     3     COLS  -0.272200
    33   HA   -0.579    0.490   -1.336   H1     3     COLS   0.130400
    34   CB   -0.674    0.744    0.786   2C     3     COLS   0.112300
    35  HB2   -1.754    0.891    0.795   H1     3     COLS   0.081300
    36  HB3   -0.373    0.205    1.685   H1     3     COLS   0.081300
    37   OG   -0.020    2.015    0.750   Os     3     COLS  -0.398000
    38    C    1.235   -0.205   -0.447    C     3     COLS   0.811300
    39    O    1.758   -1.317   -0.447   O2     3     COLS  -0.813200
    40  OXT    1.954    0.792   -0.447   O2     3     COLS  -0.813200
    41    N   -0.901   -1.306   -0.974    N     4     COLT  -0.382100
    42    H   -0.317   -2.131   -0.974    H     4     COLT   0.268100
    43   CA   -0.257   -0.009   -0.974   CX     4     COLT  -0.242000
    44   HA   -0.555    0.546   -1.864   H1     4     COLT   0.120700
    45   CB   -0.650    0.800    0.258   3C     4     COLT   0.302500
    46   HB   -1.730    0.947    0.267   H1     4     COLT   0.007800
    47  CG2   -0.229    0.046    1.515   CT     4     COLT  -0.185300
    48 HG21    0.851   -0.101    1.507   HC     4     COLT   0.058600
    49 HG22   -0.510    0.623    2.396   HC     4     COLT   0.058600
    50 HG23   -0.727   -0.923    1.543   HC     4     COLT   0.058600
    51  OG1    0.004    2.071    0.223   Os     4     COLT  -0.431700
    52    C    1.259   -0.149   -0.974    C     4     COLT   0.781000
    53    O    1.782   -1.261   -0.974   O2     4     COLT  -0.804400
    54  OXT    1.978    0.848   -0.974   O2     4     COLT  -0.804400
    55    N   -0.745   -1.919   -0.809    N     5      NLN  -0.415700
    56    H   -0.162   -2.743   -0.809    H     5      NLN   0.271900
    57   CA   -0.101   -0.621   -0.809   CX     5      NLN   0.014300
    58   HA   -0.400   -0.067   -1.699   H1     5      NLN   0.104800
    59   CB   -0.494    0.187    0.423   2C     5      NLN  -0.204100
    60  HB2   -1.574    0.334    0.432   HC     5      NLN   0.079700
    61  HB3   -0.194   -0.351    1.322   HC     5      NLN   0.079700
    62   CG    0.182    1.550    0.423    C     5      NLN   0.713000
    63  OD1    0.934    1.874   -0.494    O     5      NLN  -0.593100
    64  ND2   -0.086    2.351    1.456    N     5      NLN  -0.693500
    65 HD21   -0.712    2.038    2.185    H     5      NLN   0.419600
    66    C    1.414   -0.761   -0.809    C     5      NLN   0.597300
    67    O    1.938   -1.873   -0.809    O     5      NLN  -0.567900
    68    N   -0.588   -1.664   -0.702   N3     6     NNLN   0.180100
    69   H1    0.132   -2.372   -0.702    H     6     NNLN   0.192100
    70   H2   -1.091   -1.713   -1.576    H     6     NNLN   0.192100
    71   H3   -1.091   -1.713    0.173    H     6     NNLN   0.192100
    72   CA    0.056   -0.366   -0.701   CX     6     NNLN   0.036800
    73   HA   -0.242    0.188   -1.591   HP     6     NNLN   0.123100
    74   CB   -0.337    0.442    0.531   2C     6     NNLN  -0.028300
    75  HB2   -1.417    0.589    0.540   HC     6     NNLN   0.051500
    76  HB3   -0.036   -0.096    1.430   HC     6     NNLN   0.051500
    77   CG    0.340    1.805    0.531    C     6     NNLN   0.583300
    78  OD1    1.091    2.128   -0.386    O     6     NNLN  -0.574400
    79  ND2    0.071    2.606    1.564    N     6     NNLN  -0.647700
    80 HD21   -0.554    2.292    2.293    H     6     NNLN   0.409700
    81    C    1.572   -0.507   -0.702    C     6     NNLN   0.616300
    82    O    2.095   -1.619   -0.702    O     6     NNLN  -0.572200
    83    N   -1.058   -0.265   -0.002   N3     7     NOLP  -0.202000
    84   H2   -1.561   -0.314   -0.877    H     7     NOLP   0.290500
    85   H3   -1.561   -0.314    0.873    H     7     NOLP   0.290500
    86   CD   -0.090   -1.353    0.078   CT     7     NOLP   0.064000
    87  HD2    0.024   -1.811   -0.904   HP     7     NOLP   0.098300
    88  HD3   -0.442   -2.101    0.789   HP     7     NOLP   0.098300
    89   CG    1.159   -0.666    0.543   CT     7     NOLP   0.005900
    90  HG2    2.023   -1.103    0.041   H1     7     NOLP   0.127800
    91  OD1    1.294   -0.827    1.926   Os     7     NOLP  -0.366300
    92   CB    0.991    0.791    0.183   CT     7     NOLP   0.098700
    93  HB2    1.593    1.021   -0.696   HC     7     NOLP   0.034700
    94  HB3    1.317    1.412    1.018   HC     7     NOLP   0.034700
    95   CA   -0.442    1.044   -0.106   CX     7     NOLP   0.100000
    96   HA   -0.760    1.664    0.732   HP     7     NOLP   0.104900
    97    C   -0.866    1.702   -1.412    C     7     NOLP   0.526000
    98    O   -1.621    1.120   -2.187    O     7     NOLP  -0.500000
    99    N   -0.536   -1.071   -0.409   N3     8     NOLS   0.184900
   100   H1    0.185   -1.779   -0.409    H     8     NOLS   0.189800
   101   H2   -1.038   -1.119   -1.284    H     8     NOLS   0.189800
   102   H3   -1.038   -1.119    0.465    H     8     NOLS   0.189800
   103   CA    0.109    0.227   -0.409   CX     8     NOLS   0.056700
   104   HA   -0.190    0.781   -1.299   HP     8     NOLS   0.078200
   105   CB   -0.284    1.035    0.823   2C     8     NOLS   0.259600
   106  HB2   -1.364    1.182    0.832   H1     8     NOLS   0.027300
   107  HB3    0.016    0.497    1.722   H1     8     NOLS   0.027300
   108   OG    0.369    2.306    0.788   Os     8     NOLS  -0.441500
   109    C    1.624    0.086   -0.409    C     8     NOLS   0.616300
   110    O    2.147   -1.026   -0.409    O     8     NOLS  -0.572200
   111    N   -0.591   -1.077   -0.909   N3     9     NOLT   0.181200
   112   H1    0.129   -1.785   -0.909    H     9     NOLT   0.193400
   113   H2   -1.094   -1.125   -1.784    H     9     NOLT   0.193400
   114   H3   -1.094   -1.125   -0.035    H     9     NOLT   0.193400
   115   CA    0.053    0.221   -0.909   CX     9     NOLT   0.003400
   116   HA   -0.245    0.775   -1.799   HP     9     NOLT   0.108700
   117   CB   -0.340    1.029    0.323   3C     9     NOLT   0.451400
   118   HB   -1.420    1.176    0.332   H1     9     NOLT  -0.032300
   119  CG2    0.081    0.276    1.580   CT     9     NOLT  -0.255400
   120 HG21    1.161    0.128    1.572   HC     9     NOLT   0.062700
   121 HG22   -0.200    0.853    2.461   HC     9     NOLT   0.062700
   122 HG23   -0.417   -0.694    1.608   HC     9     NOLT   0.062700
   123  OG1    0.314    2.300    0.288   Os     9     NOLT  -0.463400
   124    C    1.569    0.080   -0.909    C     9     NOLT   0.616300
   125    O    2.092   -1.032   -0.909    O     9     NOLT  -0.572200
   126    N   -1.279   -0.319   -0.003    N    10      OLP  -0.254800
   127   CD   -0.304   -1.400    0.078   CT    10      OLP   0.302000
   128  HD2   -0.186   -1.857   -0.905   H1    10      OLP  -0.043100
   129  HD3   -0.650   -2.151    0.788   H1    10      OLP  -0.043100
   130   CG    0.941   -0.704    0.542   CT    10      OLP   0.397700
   131  HG2    1.808   -1.135    0.040   H1    10      OLP  -0.050900
   132  OD1    1.078   -0.865    1.931   Os    10      OLP  -0.487800
   133   CB    0.763    0.752    0.183   CT    10      OLP  -0.146700
   134  HB2    1.363    0.985   -0.697   HC    10      OLP   0.040900
   135  HB3    1.085    1.374    1.017   HC    10      OLP   0.040900
   136   CA   -0.672    0.995   -0.107   CX    10      OLP  -0.026600
   137   HA   -0.994    1.612    0.732   H1    10      OLP   0.062700
   138    C   -1.101    1.650   -1.412    C    10      OLP   0.589600
   139    O   -1.852    1.063   -2.188    O    10      OLP  -0.574800
   140    N   -0.730   -1.283   -0.491    N    11      OLS  -0.415700
   141    H   -0.146   -2.108   -0.491    H    11      OLS   0.271900
   142   CA   -0.085    0.015   -0.491   CX    11      OLS  -0.024900
   143   HA   -0.384    0.569   -1.381   H1    11      OLS   0.084300
   144   CB   -0.478    0.823    0.741   2C    11      OLS   0.211700
   145  HB2   -1.558    0.970    0.750   H1    11      OLS   0.035200
   146  HB3   -0.178    0.285    1.640   H1    11      OLS   0.035200
   147   OG    0.175    2.094    0.706   Os    11      OLS  -0.421100
   148    C    1.430   -0.126   -0.491    C    11      OLS   0.597300
   149    O    1.953   -1.238   -0.491    O    11      OLS  -0.567900
   150    N   -0.749   -1.241   -1.049    N    12      OLT  -0.415700
   151    H   -0.165   -2.066   -1.049    H    12      OLT   0.271900
   152   CA   -0.104    0.057   -1.049   CX    12      OLT  -0.038900
   153   HA   -0.403    0.611   -1.939   H1    12      OLT   0.100700
   154   CB   -0.497    0.865    0.183   3C    12      OLT   0.365400
   155   HB   -1.577    1.012    0.192   H1    12      OLT   0.004300
   156  CG2   -0.077    0.111    1.440   CT    12      OLT  -0.243800
   157 HG21    1.003   -0.036    1.432   HC    12      OLT   0.064200
   158 HG22   -0.357    0.689    2.321   HC    12      OLT   0.064200
   159 HG23   -0.575   -0.858    1.468   HC    12      OLT   0.064200
   160  OG1    0.156    2.136    0.148   Os    12      OLT  -0.459900
   161    C    1.411   -0.084   -1.049    C    12      OLT   0.597300
   162    O    1.934   -1.196   -1.049    O    12      OLT  -0.567900
@<TRIPOS>BOND
     1      1      2 1
     2      1      3 1
     3      3      4 1
     4      3      5 1
     5      3     12 1
     6      5      6 1
     7      5      7 1
     8      5      8 1
     9      8      9 1
    10      8     10 1
    11     10     11 1
    12     12     13 1
    13     12     14 1
    14     15     16 1
    15     15     25 1
    16     16     17 1
    17     16     18 1
    18     16     19 1
    19     19     20 1
    20     19     21 1
    21     19     22 1
    22     22     23 1
    23     22     24 1
    24     22     25 1
    25     25     26 1
    26     25     27 1
    27     27     28 1
    28     27     29 1
    29     30     31 1
    30     30     32 1
    31     32     33 1
    32     32     34 1
    33     32     38 1
    34     34     35 1
    35     34     36 1
    36     34     37 1
    37     38     39 1
    38     38     40 1
    39     41     42 1
    40     41     43 1
    41     43     44 1
    42     43     45 1
    43     43     52 1
    44     45     46 1
    45     45     47 1
    46     45     51 1
    47     47     48 1
    48     47     49 1
    49     47     50 1
    50     52     53 1
    51     52     54 1
    52     55     56 1
    53     55     57 1
    54     57     58 1
    55     57     59 1
    56     57     66 1
    57     59     60 1
    58     59     61 1
    59     59     62 1
    60     62     63 1
    61     62     64 1
    62     64     65 1
    63     66     67 1
    64     68     69 1
    65     68     70 1
    66     68     71 1
    67     68     72 1
    68     72     73 1
    69     72     74 1
    70     72     81 1
    71     74     75 1
    72     74     76 1
    73     74     77 1
    74     77     78 1
    75     77     79 1
    76     79     80 1
    77     81     82 1
    78     83     84 1
    79     83     85 1
    80     83     86 1
    81     83     95 1
    82     86     87 1
    83     86     88 1
    84     86     89 1
    85     89     90 1
    86     89     91 1
    87     89     92 1
    88     92     93 1
    89     92     94 1
    90     92     95 1
    91     95     96 1
    92     95     97 1
    93     97     98 1
    94     99    100 1
    95     99    101 1
    96     99    102 1
    97     99    103 1
    98    103    104 1
    99    103    105 1
   100    103    109 1
   101    105    106 1
   102    105    107 1
   103    105    108 1
   104    109    110 1
   105    111    112 1
   106    111    113 1
   107    111    114 1
   108    111    115 1
   109    115    116 1
   110    115    117 1
   111    115    124 1
   112    117    118 1
   113    117    119 1
   114    117    123 1
   115    119    120 1
   116    119    121 1
   117    119    122 1
   118    124    125 1
   119    126    127 1
   120    126    136 1
   121    127    128 1
   122    127    129 1
   123    127    130 1
   124    130    131 1
   125    130    132 1
   126    130    133 1
   127    133    134 1
   128    133    135 1
   129    133    136 1
   130    136    137 1
   131    136    138 1
   132    138    139 1
   133    140    141 1
   134    140    142 1
   135    142    143 1
   136    142    144 1
   137    142    148 1
   138    144    145 1
   139    144    146 1
   140    144    147 1
   141    148    149 1
   142    150    151 1
   143    150    152 1
   144    152    153 1
   145    152    154 1
   146    152    161 1
   147    154    155 1
   148    154    156 1
   149    154    160 1
   150    156    157 1
   151    156    158 1
   152    156    159 1
   153    161    162 1
@<TRIPOS>SUBSTRUCTURE
    1     CNLN      1 ****               0 ****  **** 
    2     COLP     15 ****               0 ****  **** 
    3     COLS     30 ****               0 ****  **** 
    4     COLT     41 ****               0 ****  **** 
    5      NLN     55 ****               0 ****  **** 
    6     NNLN     68 ****               0 ****  **** 
    7     NOLP     83 ****               0 ****  **** 
    8     NOLS     99 ****               0 ****  **** 
    9     NOLT    111 ****               0 ****  **** 
   10      OLP    126 ****               0 ****  **** 
   11      OLS    140 ****               0 ****  **** 
   12      OLT    150 ****               0 ****  **** 
