@<TRIPOS>MOLECULE
l_furanose
 2360 2360 120 0 1
SMALL
USER_CHARGES
@<TRIPOS>ATOM
     1   C1   -1.199   -1.250   -1.154   Cg     1      0aD   0.368000
     2   H1   -0.666   -1.710   -1.987   H2     1      0aD   0.000000
     3   O4   -0.523   -1.647    0.196   Os     1      0aD  -0.453000
     4   C4   -0.095   -0.395    1.069   Cg     1      0aD   0.147000
     5   H4   -0.739   -0.359    1.949   H1     1      0aD   0.000000
     6   C5    1.363   -0.515    1.521   Cg     1      0aD   0.338000
     7  H51    1.478   -1.358    2.202   H1     1      0aD   0.000000
     8  H52    1.674    0.392    2.040   H1     1      0aD   0.000000
     9   O5    2.201   -0.721    0.370   Oh     1      0aD  -0.696000
    10  H5O    2.028   -1.606    0.033   Ho     1      0aD   0.399000
    11   C3   -0.365    0.894    0.132   Cg     1      0aD   0.370000
    12   H3    0.579    1.371   -0.136   H1     1      0aD   0.000000
    13   O3   -1.175    1.854    0.847   Oh     1      0aD  -0.703000
    14  H3O   -1.321    2.623    0.288   Ho     1      0aD   0.404000
    15   C2   -1.128    0.379   -1.223   Cg     1      0aD   0.278000
    16   H2   -2.139    0.791   -1.252   H1     1      0aD   0.000000
    17   O2   -0.416    0.839   -2.410   Oh     1      0aD  -0.688000
    18  H2O    0.445    0.417   -2.484   Ho     1      0aD   0.430000
    19   C1    0.647   -0.848    1.713   Cg     2      0aU   0.477000
    20   H1    1.578   -1.145    2.195   H2     2      0aU   0.000000
    21   C2    0.576    0.763    1.438   Cg     2      0aU   0.328000
    22   H2    1.586    1.162    1.553   H1     2      0aU   0.000000
    23   C3    0.096    0.971   -0.112   Cg     2      0aU   0.215000
    24   H3   -0.938    1.319   -0.130   H1     2      0aU   0.000000
    25   C4    0.195   -0.469   -0.854   Cg     2      0aU   0.327000
    26   H4    1.033   -0.473   -1.553   H1     2      0aU   0.000000
    27   C5   -1.093   -0.873   -1.586   Cg     2      0aU   0.227000
    28  H51   -1.330   -0.145   -2.363   H1     2      0aU   0.000000
    29  H52   -1.926   -0.909   -0.884   H1     2      0aU   0.000000
    30   O5   -0.931   -2.170   -2.189   Oh     2      0aU  -0.650000
    31  H5O   -0.568   -2.778   -1.536   Ho     2      0aU   0.397000
    32   O4    0.508   -1.511    0.309   Os     2      0aU  -0.532000
    33   O3    0.929    1.952   -0.778   Oh     2      0aU  -0.728000
    34  H3O    0.791    2.818   -0.377   Ho     2      0aU   0.437000
    35   O2   -0.301    1.491    2.344   Oh     2      0aU  -0.721000
    36  H2O   -0.852    0.847    2.810   Ho     2      0aU   0.417000
    37   C2    0.920   -0.876    1.013   Cg     3      0bD   0.241000
    38   O5    0.178   -1.447   -0.241   Os     3      0bD  -0.452000
    39   C5    0.037   -0.398   -1.424   Cg     3      0bD   0.271000
    40   H5    0.609   -0.752   -2.282   H1     3      0bD   0.000000
    41   C6   -1.449   -0.264   -1.819   Cg     3      0bD   0.281000
    42  H61   -1.585    0.578   -2.497   H1     3      0bD   0.000000
    43  H62   -2.056   -0.087   -0.930   H1     3      0bD   0.000000
    44   O6   -1.914   -1.457   -2.484   Oh     3      0bD  -0.679000
    45  H6O   -1.506   -1.534   -3.349   Ho     3      0bD   0.411000
    46   C4    0.732    0.959   -0.859   Cg     3      0bD   0.225000
    47   H4    1.692    1.069   -1.365   H1     3      0bD   0.000000
    48   O4   -0.055    2.157   -1.119   Oh     3      0bD  -0.710000
    49  H4O    0.497    2.939   -0.995   Ho     3      0bD   0.435000
    50   C3    1.006    0.739    0.739   Cg     3      0bD   0.440000
    51   H3    0.196    1.225    1.283   H1     3      0bD   0.000000
    52   O3    2.244    1.386    1.141   Oh     3      0bD  -0.732000
    53  H3O    2.044    2.074    1.779   Ho     3      0bD   0.404000
    54   C1    0.207   -1.276    2.325   Cg     3      0bD   0.313000
    55  H11    0.048   -2.355    2.347   H1     3      0bD   0.000000
    56  H12    0.819   -1.006    3.186   H1     3      0bD   0.000000
    57   O1   -1.070   -0.615    2.439   Oh     3      0bD  -0.668000
    58  H1O   -1.595   -1.058    3.111   Ho     3      0bD   0.414000
    59   C2   -1.041   -0.475    0.862   Cg     4      0bU   0.247000
    60   C1   -0.682   -1.294    2.132   Cg     4      0bU   0.299000
    61  H11    0.401   -1.298    2.269   H1     4      0bU   0.000000
    62  H12   -1.132   -0.840    3.016   H1     4      0bU   0.000000
    63   O1   -1.137   -2.661    2.025   Oh     4      0bU  -0.627000
    64  H1O   -0.801   -3.167    2.769   Ho     4      0bU   0.382000
    65   C3   -0.459    1.053    0.858   Cg     4      0bU   0.382000
    66   H3   -1.254    1.735    0.554   H1     4      0bU   0.000000
    67   C4    0.728    1.118   -0.268   Cg     4      0bU   0.283000
    68   H4    1.695    1.096    0.237   H1     4      0bU   0.000000
    69   C5    0.618   -0.226   -1.174   Cg     4      0bU   0.210000
    70   H5    1.593   -0.714   -1.203   H1     4      0bU   0.000000
    71   C6    0.123   -0.001   -2.615   Cg     4      0bU   0.332000
    72  H61    0.801    0.673   -3.139   H1     4      0bU   0.000000
    73  H62   -0.870    0.450   -2.608   H1     4      0bU   0.000000
    74   O6    0.070   -1.248   -3.337   Oh     4      0bU  -0.701000
    75  H6O    0.915   -1.699   -3.280   Ho     4      0bU   0.409000
    76   O5   -0.395   -1.157   -0.394   Os     4      0bU  -0.385000
    77   O4    0.657    2.334   -1.059   Oh     4      0bU  -0.755000
    78  H4O    0.860    3.093   -0.499   Ho     4      0bU   0.434000
    79   O3    0.033    1.494    2.155   Oh     4      0bU  -0.742000
    80  H3O   -0.722    1.735    2.702   Ho     4      0bU   0.426000
    81   C2    0.943   -0.762    1.065   Cg     5      0cD   0.284000
    82   O5    0.301   -1.396   -0.213   Os     5      0cD  -0.498000
    83   C5    0.041   -0.347   -1.371   Cg     5      0cD   0.309000
    84   H5    0.617   -0.633   -2.254   H1     5      0cD   0.000000
    85   C6   -1.456   -0.289   -1.718   Cg     5      0cD   0.265000
    86  H61   -1.663    0.592   -2.325   H1     5      0cD   0.000000
    87  H62   -2.048   -0.218   -0.804   H1     5      0cD   0.000000
    88   O6   -1.866   -1.457   -2.459   Oh     5      0cD  -0.664000
    89  H6O   -1.463   -1.468   -3.330   Ho     5      0cD   0.412000
    90   C4    0.569    1.067   -0.780   Cg     5      0cD   0.332000
    91   H4   -0.172    1.855   -0.921   H1     5      0cD   0.000000
    92   O4    1.783    1.460   -1.475   Oh     5      0cD  -0.784000
    93  H4O    2.506    0.861   -1.254   Ho     5      0cD   0.444000
    94   C3    0.911    0.855    0.808   Cg     5      0cD   0.282000
    95   H3    1.867    1.312    1.071   H1     5      0cD   0.000000
    96   O3   -0.132    1.511    1.591   Oh     5      0cD  -0.716000
    97  H3O    0.022    2.464    1.593   Ho     5      0cD   0.432000
    98   C1    0.288   -1.292    2.374   Cg     5      0cD   0.370000
    99  H11    0.349   -2.380    2.413   H1     5      0cD   0.000000
   100  H12    0.820   -0.892    3.238   H1     5      0cD   0.000000
   101   O1   -1.095   -0.898    2.464   Oh     5      0cD  -0.688000
   102  H1O   -1.121    0.055    2.284   Ho     5      0cD   0.414000
   103   C2   -1.032   -0.873    0.610   Cg     6      0cU   0.239000
   104   C1   -0.614   -2.340    0.799   Cg     6      0cU   0.287000
   105  H11    0.465   -2.438    0.674   H1     6      0cU   0.000000
   106  H12   -0.872   -2.687    1.801   H1     6      0cU   0.000000
   107   O1   -1.266   -3.172   -0.174   Oh     6      0cU  -0.624000
   108  H1O   -0.997   -4.085   -0.046   Ho     6      0cU   0.401000
   109   C3   -0.124    0.131    1.528   Cg     6      0cU   0.333000
   110   H3    0.403   -0.404    2.319   H1     6      0cU   0.000000
   111   C4    0.892    0.908    0.527   Cg     6      0cU   0.293000
   112   H4    0.975    1.974    0.750   H1     6      0cU   0.000000
   113   C5    0.395    0.638   -0.994   Cg     6      0cU   0.310000
   114   H5    1.211    0.253   -1.609   H1     6      0cU   0.000000
   115   C6   -0.203    1.883   -1.649   Cg     6      0cU   0.272000
   116  H61    0.536    2.684   -1.684   H1     6      0cU   0.000000
   117  H62   -1.071    2.234   -1.089   H1     6      0cU   0.000000
   118   O6   -0.600    1.552   -2.986   Oh     6      0cU  -0.652000
   119  H6O    0.164    1.247   -3.481   Ho     6      0cU   0.397000
   120   O5   -0.735   -0.456   -0.880   Os     6      0cU  -0.449000
   121   O4    2.181    0.299    0.680   Oh     6      0cU  -0.763000
   122  H4O    2.805    0.717    0.083   Ho     6      0cU   0.431000
   123   O3   -0.928    1.166    2.123   Oh     6      0cU  -0.691000
   124  H3O   -1.586    0.769    2.698   Ho     6      0cU   0.410000
   125   C1   -1.424   -1.139   -0.798   Cg     7      0dD   0.380000
   126   H1   -1.056   -1.664   -1.680   H1     7      0dD   0.000000
   127   O4   -0.502   -1.455    0.422   Os     7      0dD  -0.423000
   128   C4    0.170   -0.157    1.043   Cg     7      0dD   0.189000
   129   H4   -0.351    0.072    1.973   H1     7      0dD   0.000000
   130   C5    1.652   -0.417    1.359   Cg     7      0dD   0.305000
   131  H51    2.186   -0.730    0.462   H1     7      0dD   0.000000
   132  H52    2.121    0.488    1.747   H1     7      0dD   0.000000
   133   O5    1.742   -1.457    2.348   Oh     7      0dD  -0.697000
   134  H5O    1.283   -2.232    2.010   Ho     7      0dD   0.414000
   135   C3   -0.171    1.034   -0.007   Cg     7      0dD   0.298000
   136   H3   -0.477    1.944    0.509   H1     7      0dD   0.000000
   137   O3    0.999    1.314   -0.810   Oh     7      0dD  -0.678000
   138  H3O    0.681    1.480   -1.710   Ho     7      0dD   0.417000
   139   C2   -1.367    0.481   -0.985   Cg     7      0dD   0.229000
   140   H2   -2.303    0.912   -0.628   H1     7      0dD   0.000000
   141   O2   -1.196    0.881   -2.378   Oh     7      0dD  -0.651000
   142  H2O   -1.987    0.645   -2.876   Ho     7      0dD   0.411000
   143   C1   -1.388   -0.680    1.397   Cg     8      0dU   0.436000
   144   H1   -1.303   -1.282    2.302   H2     8      0dU   0.000000
   145   C2   -0.494    0.689    1.533   Cg     8      0dU   0.284000
   146   H2   -0.199    0.849    2.569   H1     8      0dU   0.000000
   147   C3    0.824    0.475    0.577   Cg     8      0dU   0.300000
   148   H3    1.664    0.207    1.220   H1     8      0dU   0.000000
   149   C4    0.529   -0.784   -0.399   Cg     8      0dU   0.135000
   150   H4    1.356   -1.492   -0.324   H1     8      0dU   0.000000
   151   C5    0.316   -0.414   -1.881   Cg     8      0dU   0.373000
   152  H51    1.216    0.055   -2.279   H1     8      0dU   0.000000
   153  H52   -0.513    0.287   -1.983   H1     8      0dU   0.000000
   154   O5    0.032   -1.594   -2.654   Oh     8      0dU  -0.725000
   155  H5O    0.546   -2.329   -2.312   Ho     8      0dU   0.418000
   156   O4   -0.778   -1.459    0.199   Os     8      0dU  -0.517000
   157   O3    1.176    1.677   -0.144   Oh     8      0dU  -0.642000
   158  H3O    0.447    2.302   -0.004   Ho     8      0dU   0.405000
   159   O2   -1.244    1.857    1.068   Oh     8      0dU  -0.680000
   160  H2O   -2.186    1.636    1.115   Ho     8      0dU   0.407000
   161   C2    1.024   -0.928    1.063   Cg     9      0jD   0.192000
   162   O5    0.324   -1.466   -0.232   Os     9      0jD  -0.410000
   163   C5    0.145   -0.360   -1.353   Cg     9      0jD   0.190000
   164   H5    0.697   -0.659   -2.245   H1     9      0jD   0.000000
   165   C6   -1.351   -0.216   -1.697   Cg     9      0jD   0.340000
   166  H61   -1.509    0.654   -2.334   H1     9      0jD   0.000000
   167  H62   -1.937   -0.086   -0.787   H1     9      0jD   0.000000
   168   O6   -1.820   -1.381   -2.405   Oh     9      0jD  -0.725000
   169  H6O   -1.312   -1.509   -3.208   Ho     9      0jD   0.425000
   170   C4    0.834    0.973   -0.728   Cg     9      0jD   0.233000
   171   H4    1.817    1.071   -1.188   H1     9      0jD   0.000000
   172   O4    0.094    2.199   -1.000   Oh     9      0jD  -0.671000
   173  H4O    0.697    2.893   -1.292   Ho     9      0jD   0.414000
   174   C3    1.069    0.698    0.874   Cg     9      0jD   0.393000
   175   H3    2.012    1.129    1.212   H1     9      0jD   0.000000
   176   O3   -0.027    1.321    1.601   Oh     9      0jD  -0.748000
   177  H3O   -0.376    2.015    1.022   Ho     9      0jD   0.446000
   178   C1    0.361   -1.478    2.356   Cg     9      0jD   0.389000
   179  H11    0.414   -2.568    2.373   H1     9      0jD   0.000000
   180  H12    0.890   -1.100    3.232   H1     9      0jD   0.000000
   181   O1   -1.018   -1.080    2.443   Oh     9      0jD  -0.654000
   182  H1O   -1.029   -0.123    2.293   Ho     9      0jD   0.380000
   183   C2   -0.949   -0.422    0.884   Cg    10      0jU   0.351000
   184   C1   -0.648   -1.221    2.183   Cg    10      0jU   0.333000
   185  H11    0.429   -1.269    2.341   H1    10      0jU   0.000000
   186  H12   -1.092   -0.720    3.042   H1    10      0jU   0.000000
   187   O1   -1.166   -2.572    2.110   Oh    10      0jU  -0.697000
   188  H1O   -0.882   -3.069    2.882   Ho    10      0jU   0.415000
   189   C3   -0.280    1.077    0.943   Cg    10      0jU   0.223000
   190   H3    0.049    1.329    1.951   H1    10      0jU   0.000000
   191   C4    0.991    1.063   -0.092   Cg    10      0jU   0.284000
   192   H4    1.900    0.939    0.498   H1    10      0jU   0.000000
   193   C5    0.843   -0.241   -1.041   Cg    10      0jU   0.100000
   194   H5    1.783   -0.791   -1.042   H1    10      0jU   0.000000
   195   C6    0.413    0.046   -2.488   Cg    10      0jU   0.349000
   196  H61    1.118    0.714   -2.981   H1    10      0jU   0.000000
   197  H62   -0.575    0.503   -2.505   H1    10      0jU   0.000000
   198   O6    0.372   -1.203   -3.195   Oh    10      0jU  -0.684000
   199  H6O   -0.063   -1.845   -2.625   Ho    10      0jU   0.411000
   200   O5   -0.276   -1.124   -0.348   Os    10      0jU  -0.389000
   201   O4    1.099    2.293   -0.836   Oh    10      0jU  -0.657000
   202  H4O    0.292    2.793   -0.644   Ho    10      0jU   0.410000
   203   O3   -1.246    2.080    0.502   Oh    10      0jU  -0.671000
   204  H3O   -2.110    1.639    0.462   Ho    10      0jU   0.416000
   205   C2    0.821   -1.287   -0.204   Cg    11      0pD   0.324000
   206   O5   -0.268   -0.704   -1.187   Os    11      0pD  -0.453000
   207   C5   -0.419    0.864   -1.063   Cg    11      0pD   0.194000
   208   H5   -0.176    1.326   -2.022   H1    11      0pD   0.000000
   209   C6   -1.869    1.184   -0.696   Cg    11      0pD   0.291000
   210  H61   -1.990    2.255   -0.534   H1    11      0pD   0.000000
   211  H62   -2.161    0.658    0.214   H1    11      0pD   0.000000
   212   O6   -2.715    0.774   -1.777   Oh    11      0pD  -0.695000
   213  H6O   -2.458    1.237   -2.578   Ho    11      0pD   0.411000
   214   C4    0.636    1.314    0.088   Cg    11      0pD   0.282000
   215   H4    0.204    2.009    0.810   H1    11      0pD   0.000000
   216   O4    1.725    1.949   -0.602   Oh    11      0pD  -0.683000
   217  H4O    2.399    2.206    0.031   Ho    11      0pD   0.421000
   218   C3    1.165   -0.051    0.804   Cg    11      0pD   0.334000
   219   H3    0.566   -0.181    1.705   H1    11      0pD   0.000000
   220   O3    2.544    0.010    1.218   Oh    11      0pD  -0.661000
   221  H3O    2.666    0.748    1.820   Ho    11      0pD   0.415000
   222   C1    0.311   -2.578    0.446   Cg    11      0pD   0.286000
   223  H11    0.137   -3.345   -0.310   H1    11      0pD   0.000000
   224  H12    1.041   -2.958    1.162   H1    11      0pD   0.000000
   225   O1   -0.922   -2.312    1.130   Oh    11      0pD  -0.691000
   226  H1O   -1.237   -3.118    1.546   Ho    11      0pD   0.419000
   227   C2   -1.049   -0.910    0.477   Cg    12      0pU   0.288000
   228   C1   -0.800   -2.425    0.601   Cg    12      0pU   0.365000
   229  H11    0.268   -2.633    0.537   H1    12      0pU   0.000000
   230  H12   -1.162   -2.797    1.561   H1    12      0pU   0.000000
   231   O1   -1.468   -3.126   -0.460   Oh    12      0pU  -0.687000
   232  H1O   -1.314   -4.069   -0.369   Ho    12      0pU   0.418000
   233   C3   -0.228    0.065    1.496   Cg    12      0pU   0.334000
   234   H3   -0.925    0.734    2.002   H1    12      0pU   0.000000
   235   C4    0.766    0.997    0.600   Cg    12      0pU   0.192000
   236   H4    0.703    2.043    0.903   H1    12      0pU   0.000000
   237   C5    0.355    0.786   -0.956   Cg    12      0pU   0.369000
   238   H5    1.229    0.559   -1.570   H1    12      0pU   0.000000
   239   C6   -0.379    1.992   -1.543   Cg    12      0pU   0.215000
   240  H61    0.253    2.879   -1.497   H1    12      0pU   0.000000
   241  H62   -1.298    2.190   -0.990   H1    12      0pU   0.000000
   242   O6   -0.697    1.713   -2.912   Oh    12      0pU  -0.678000
   243  H6O    0.111    1.530   -3.398   Ho    12      0pU   0.421000
   244   O5   -0.625   -0.448   -0.969   Os    12      0pU  -0.480000
   245   O4    2.129    0.551    0.716   Oh    12      0pU  -0.711000
   246  H4O    2.696    1.114    0.184   Ho    12      0pU   0.438000
   247   O3    0.470   -0.676    2.516   Oh    12      0pU  -0.714000
   248  H3O    0.964   -0.069    3.071   Ho    12      0pU   0.424000
   249   C1    0.668   -1.103    1.657   Cg    13      0rD   0.445000
   250   H1    0.158   -1.393    2.576   H2    13      0rD   0.000000
   251   O4   -0.074   -1.646    0.395   Os    13      0rD  -0.513000
   252   C4   -0.190   -0.578   -0.777   Cg    13      0rD   0.327000
   253   H4    0.386   -0.925   -1.635   H1    13      0rD   0.000000
   254   C5   -1.660   -0.379   -1.189   Cg    13      0rD   0.195000
   255  H51   -1.737    0.449   -1.894   H1    13      0rD   0.000000
   256  H52   -2.261   -0.134   -0.313   H1    13      0rD   0.000000
   257   O5   -2.199   -1.562   -1.810   Oh    13      0rD  -0.667000
   258  H5O   -1.740   -1.757   -2.632   Ho    13      0rD   0.408000
   259   C3    0.457    0.783   -0.164   Cg    13      0rD   0.275000
   260   H3   -0.192    1.646   -0.318   H1    13      0rD   0.000000
   261   O3    1.723    1.022   -0.832   Oh    13      0rD  -0.739000
   262  H3O    2.442    0.760   -0.238   Ho    13      0rD   0.438000
   263   C2    0.706    0.520    1.437   Cg    13      0rD   0.318000
   264   H2   -0.165    0.919    1.957   H1    13      0rD   0.000000
   265   O2    1.876    1.216    1.968   Oh    13      0rD  -0.709000
   266  H2O    1.801    2.162    1.811   Ho    13      0rD   0.416000
   267   C1    0.345   -0.852    1.852   Cg    14      0rU   0.378000
   268   H1    1.243   -1.162    2.388   H1    14      0rU   0.000000
   269   C2    0.285    0.756    1.576   Cg    14      0rU   0.293000
   270   H2   -0.444    1.249    2.221   H1    14      0rU   0.000000
   271   C3   -0.130    0.940   -0.003   Cg    14      0rU   0.289000
   272   H3   -1.181    1.227   -0.046   H1    14      0rU   0.000000
   273   C4    0.065   -0.489   -0.733   Cg    14      0rU   0.102000
   274   H4    0.971   -0.468   -1.339   H1    14      0rU   0.000000
   275   C5   -1.136   -0.869   -1.608   Cg    14      0rU   0.338000
   276  H51   -2.022   -1.022   -0.992   H1    14      0rU   0.000000
   277  H52   -1.346   -0.071   -2.321   H1    14      0rU   0.000000
   278   O5   -0.849   -2.073   -2.335   Oh    14      0rU  -0.692000
   279  H5O   -1.594   -2.295   -2.897   Ho    14      0rU   0.415000
   280   O4    0.284   -1.525    0.449   Os    14      0rU  -0.424000
   281   O3    0.650    1.957   -0.666   Oh    14      0rU  -0.683000
   282  H3O    1.466    2.054   -0.155   Ho    14      0rU   0.428000
   283   O2    1.604    1.333    1.833   Oh    14      0rU  -0.670000
   284  H2O    1.789    1.309    2.777   Ho    14      0rU   0.420000
   285   C1   -0.828   -1.280   -1.287   Cg    15      0xD   0.428000
   286   H1   -0.390   -1.501   -2.260   H1    15      0xD   0.000000
   287   O4    0.130   -1.694   -0.125   Os    15      0xD  -0.507000
   288   C4    0.304   -0.558    0.978   Cg    15      0xD   0.237000
   289   H4   -0.091   -0.924    1.925   H1    15      0xD   0.000000
   290   C5    1.806   -0.252    1.159   Cg    15      0xD   0.280000
   291  H51    1.953    0.671    1.720   H1    15      0xD   0.000000
   292  H52    2.270   -1.063    1.722   H1    15      0xD   0.000000
   293   O5    2.463   -0.157   -0.120   Oh    15      0xD  -0.678000
   294  H5O    2.269   -0.960   -0.612   Ho    15      0xD   0.422000
   295   C3   -0.637    0.666    0.467   Cg    15      0xD   0.302000
   296   H3   -1.516    0.698    1.113   H1    15      0xD   0.000000
   297   O3    0.008    1.960    0.522   Oh    15      0xD  -0.714000
   298  H3O   -0.585    2.622    0.152   Ho    15      0xD   0.426000
   299   C2   -1.118    0.313   -1.054   Cg    15      0xD   0.248000
   300   H2   -0.495    0.869   -1.756   H1    15      0xD   0.000000
   301   O2   -2.504    0.698   -1.273   Oh    15      0xD  -0.657000
   302  H2O   -3.039   -0.108   -1.270   Ho    15      0xD   0.407000
   303   C1   -1.437   -0.796    1.250   Cg    16      0xU   0.388000
   304   H1   -1.315   -1.428    2.130   H2    16      0xU   0.000000
   305   C2   -0.645    0.620    1.426   Cg    16      0xU   0.382000
   306   H2   -1.315    1.444    1.174   H1    16      0xU   0.000000
   307   C3    0.612    0.606    0.380   Cg    16      0xU   0.224000
   308   H3    1.544    0.475    0.932   H1    16      0xU   0.000000
   309   C4    0.425   -0.678   -0.600   Cg    16      0xU   0.142000
   310   H4    1.322   -1.295   -0.541   H1    16      0xU   0.000000
   311   C5    0.137   -0.354   -2.079   Cg    16      0xU   0.285000
   312  H51    0.963    0.218   -2.502   H1    16      0xU   0.000000
   313  H52   -0.774    0.238   -2.169   H1    16      0xU   0.000000
   314   O5   -0.015   -1.571   -2.831   Oh    16      0xU  -0.635000
   315  H5O    0.707   -2.168   -2.627   Ho    16      0xU   0.396000
   316   O4   -0.788   -1.490    0.017   Os    16      0xU  -0.427000
   317   O3    0.692    1.854   -0.354   Oh    16      0xU  -0.662000
   318  H3O    0.974    2.558    0.241   Ho    16      0xU   0.412000
   319   O2   -0.166    0.818    2.784   Oh    16      0xU  -0.731000
   320  H2O   -0.920    0.948    3.369   Ho    16      0xU   0.420000
   321   O1   -2.408   -1.608   -1.054   Os    17      1aD  -0.388000
   322   C1   -1.065   -1.161   -1.096   Cg    17      1aD   0.368000
   323   H1   -0.532   -1.621   -1.928   H2    17      1aD   0.000000
   324   O4   -0.389   -1.557    0.254   Os    17      1aD  -0.453000
   325   C4    0.039   -0.306    1.128   Cg    17      1aD   0.147000
   326   H4   -0.605   -0.270    2.007   H1    17      1aD   0.000000
   327   C5    1.497   -0.425    1.579   Cg    17      1aD   0.338000
   328  H51    1.612   -1.268    2.261   H1    17      1aD   0.000000
   329  H52    1.807    0.482    2.098   H1    17      1aD   0.000000
   330   O5    2.335   -0.631    0.429   Oh    17      1aD  -0.696000
   331  H5O    2.162   -1.516    0.091   Ho    17      1aD   0.399000
   332   C3   -0.231    0.984    0.191   Cg    17      1aD   0.370000
   333   H3    0.712    1.461   -0.077   H1    17      1aD   0.000000
   334   O3   -1.042    1.943    0.906   Oh    17      1aD  -0.703000
   335  H3O   -1.188    2.712    0.347   Ho    17      1aD   0.404000
   336   C2   -0.994    0.468   -1.164   Cg    17      1aD   0.278000
   337   H2   -2.006    0.880   -1.194   H1    17      1aD   0.000000
   338   O2   -0.283    0.928   -2.352   Oh    17      1aD  -0.688000
   339  H2O    0.579    0.506   -2.426   Ho    17      1aD   0.430000
   340   O1   -0.456   -1.231    2.322   Os    18      1aU  -0.388000
   341   C1    0.672   -0.779    1.584   Cg    18      1aU   0.477000
   342   H1    1.603   -1.076    2.067   H2    18      1aU   0.000000
   343   C2    0.601    0.832    1.309   Cg    18      1aU   0.328000
   344   H2    1.610    1.230    1.424   H1    18      1aU   0.000000
   345   C3    0.122    1.039   -0.241   Cg    18      1aU   0.215000
   346   H3   -0.912    1.387   -0.260   H1    18      1aU   0.000000
   347   C4    0.221   -0.401   -0.983   Cg    18      1aU   0.327000
   348   H4    1.059   -0.404   -1.682   H1    18      1aU   0.000000
   349   C5   -1.068   -0.804   -1.716   Cg    18      1aU   0.227000
   350  H51   -1.304   -0.077   -2.492   H1    18      1aU   0.000000
   351  H52   -1.900   -0.841   -1.013   H1    18      1aU   0.000000
   352   O5   -0.905   -2.102   -2.318   Oh    18      1aU  -0.650000
   353  H5O   -0.543   -2.710   -1.665   Ho    18      1aU   0.397000
   354   O4    0.533   -1.443    0.180   Os    18      1aU  -0.532000
   355   O3    0.954    2.020   -0.907   Oh    18      1aU  -0.728000
   356  H3O    0.816    2.887   -0.506   Ho    18      1aU   0.437000
   357   O2   -0.276    1.559    2.215   Oh    18      1aU  -0.721000
   358  H2O   -0.827    0.915    2.681   Ho    18      1aU   0.417000
   359   C2    0.844   -0.927    1.161   Cg    19      1bD   0.241000
   360   O5    0.102   -1.497   -0.093   Os    19      1bD  -0.452000
   361   C5   -0.039   -0.449   -1.276   Cg    19      1bD   0.271000
   362   H5    0.533   -0.802   -2.134   H1    19      1bD   0.000000
   363   C6   -1.525   -0.315   -1.671   Cg    19      1bD   0.281000
   364  H61   -1.660    0.527   -2.349   H1    19      1bD   0.000000
   365  H62   -2.132   -0.138   -0.782   H1    19      1bD   0.000000
   366   O6   -1.990   -1.508   -2.336   Oh    19      1bD  -0.679000
   367  H6O   -1.582   -1.584   -3.200   Ho    19      1bD   0.411000
   368   C4    0.656    0.908   -0.711   Cg    19      1bD   0.225000
   369   H4    1.616    1.018   -1.217   H1    19      1bD   0.000000
   370   O4   -0.131    2.107   -0.971   Oh    19      1bD  -0.710000
   371  H4O    0.421    2.889   -0.847   Ho    19      1bD   0.435000
   372   C3    0.930    0.689    0.887   Cg    19      1bD   0.440000
   373   H3    0.120    1.175    1.431   H1    19      1bD   0.000000
   374   O3    2.168    1.336    1.289   Oh    19      1bD  -0.732000
   375  H3O    1.968    2.024    1.927   Ho    19      1bD   0.404000
   376   C1    0.131   -1.326    2.474   Cg    19      1bD   0.313000
   377  H11   -0.028   -2.406    2.495   H1    19      1bD   0.000000
   378  H12    0.743   -1.056    3.334   H1    19      1bD   0.000000
   379   O1   -1.146   -0.665    2.587   Os    19      1bD  -0.448000
   380   C2   -1.079   -0.626    0.994   Cg    20      1bU   0.247000
   381   C3   -0.497    0.902    0.990   Cg    20      1bU   0.382000
   382   H3   -1.292    1.584    0.686   H1    20      1bU   0.000000
   383   C4    0.689    0.967   -0.136   Cg    20      1bU   0.283000
   384   H4    1.657    0.946    0.368   H1    20      1bU   0.000000
   385   C5    0.580   -0.377   -1.042   Cg    20      1bU   0.210000
   386   H5    1.555   -0.865   -1.071   H1    20      1bU   0.000000
   387   C6    0.084   -0.151   -2.484   Cg    20      1bU   0.332000
   388  H61    0.763    0.522   -3.007   H1    20      1bU   0.000000
   389  H62   -0.908    0.299   -2.476   H1    20      1bU   0.000000
   390   O6    0.032   -1.399   -3.205   Oh    20      1bU  -0.701000
   391  H6O    0.877   -1.849   -3.148   Ho    20      1bU   0.409000
   392   O5   -0.434   -1.308   -0.262   Os    20      1bU  -0.385000
   393   O4    0.619    2.184   -0.927   Oh    20      1bU  -0.755000
   394  H4O    0.821    2.942   -0.367   Ho    20      1bU   0.434000
   395   O3   -0.005    1.343    2.287   Oh    20      1bU  -0.742000
   396  H3O   -0.760    1.584    2.833   Ho    20      1bU   0.426000
   397   C1   -0.720   -1.445    2.263   Cg    20      1bU   0.299000
   398  H11    0.363   -1.449    2.401   H1    20      1bU   0.000000
   399  H12   -1.170   -0.991    3.148   H1    20      1bU   0.000000
   400   O1   -1.175   -2.812    2.157   Os    20      1bU  -0.439000
   401   C2    0.889   -0.760    1.174   Cg    21      1cD   0.284000
   402   O5    0.248   -1.394   -0.104   Os    21      1cD  -0.498000
   403   C5   -0.012   -0.345   -1.262   Cg    21      1cD   0.309000
   404   H5    0.563   -0.630   -2.145   H1    21      1cD   0.000000
   405   C6   -1.510   -0.287   -1.609   Cg    21      1cD   0.265000
   406  H61   -1.717    0.595   -2.216   H1    21      1cD   0.000000
   407  H62   -2.101   -0.215   -0.696   H1    21      1cD   0.000000
   408   O6   -1.920   -1.454   -2.350   Oh    21      1cD  -0.664000
   409  H6O   -1.516   -1.465   -3.221   Ho    21      1cD   0.412000
   410   C4    0.516    1.069   -0.671   Cg    21      1cD   0.332000
   411   H4   -0.226    1.857   -0.812   H1    21      1cD   0.000000
   412   O4    1.730    1.463   -1.366   Oh    21      1cD  -0.784000
   413  H4O    2.453    0.864   -1.145   Ho    21      1cD   0.444000
   414   C3    0.858    0.858    0.917   Cg    21      1cD   0.282000
   415   H3    1.813    1.314    1.180   H1    21      1cD   0.000000
   416   O3   -0.185    1.514    1.700   Oh    21      1cD  -0.716000
   417  H3O   -0.032    2.467    1.702   Ho    21      1cD   0.432000
   418   C1    0.235   -1.289    2.483   Cg    21      1cD   0.370000
   419  H11    0.296   -2.378    2.521   H1    21      1cD   0.000000
   420  H12    0.767   -0.889    3.347   H1    21      1cD   0.000000
   421   O1   -1.149   -0.896    2.573   Os    21      1cD  -0.468000
   422   C2   -1.079   -1.067    0.607   Cg    22      1cU   0.239000
   423   C3   -0.171   -0.063    1.526   Cg    22      1cU   0.333000
   424   H3    0.355   -0.599    2.317   H1    22      1cU   0.000000
   425   C4    0.844    0.713    0.525   Cg    22      1cU   0.293000
   426   H4    0.928    1.779    0.748   H1    22      1cU   0.000000
   427   C5    0.347    0.443   -0.996   Cg    22      1cU   0.310000
   428   H5    1.163    0.059   -1.611   H1    22      1cU   0.000000
   429   C6   -0.250    1.689   -1.652   Cg    22      1cU   0.272000
   430  H61    0.489    2.489   -1.686   H1    22      1cU   0.000000
   431  H62   -1.118    2.039   -1.091   H1    22      1cU   0.000000
   432   O6   -0.647    1.357   -2.988   Oh    22      1cU  -0.652000
   433  H6O    0.116    1.052   -3.483   Ho    22      1cU   0.397000
   434   O5   -0.783   -0.651   -0.882   Os    22      1cU  -0.449000
   435   O4    2.133    0.104    0.678   Oh    22      1cU  -0.763000
   436  H4O    2.758    0.522    0.081   Ho    22      1cU   0.431000
   437   O3   -0.975    0.972    2.121   Oh    22      1cU  -0.691000
   438  H3O   -1.633    0.574    2.696   Ho    22      1cU   0.410000
   439   C1   -0.662   -2.534    0.797   Cg    22      1cU   0.287000
   440  H11    0.418   -2.633    0.672   H1    22      1cU   0.000000
   441  H12   -0.919   -2.881    1.798   H1    22      1cU   0.000000
   442   O1   -1.313   -3.367   -0.176   Os    22      1cU  -0.417000
   443   O1   -2.603   -1.471   -0.471   Os    23      1dD  -0.388000
   444   C1   -1.279   -1.057   -0.772   Cg    23      1dD   0.380000
   445   H1   -0.911   -1.582   -1.653   H1    23      1dD   0.000000
   446   O4   -0.357   -1.374    0.448   Os    23      1dD  -0.423000
   447   C4    0.315   -0.075    1.069   Cg    23      1dD   0.189000
   448   H4   -0.207    0.154    1.999   H1    23      1dD   0.000000
   449   C5    1.796   -0.335    1.385   Cg    23      1dD   0.305000
   450  H51    2.331   -0.648    0.488   H1    23      1dD   0.000000
   451  H52    2.265    0.570    1.773   H1    23      1dD   0.000000
   452   O5    1.886   -1.375    2.374   Oh    23      1dD  -0.697000
   453  H5O    1.427   -2.150    2.036   Ho    23      1dD   0.414000
   454   C3   -0.026    1.116    0.019   Cg    23      1dD   0.298000
   455   H3   -0.333    2.026    0.535   H1    23      1dD   0.000000
   456   O3    1.144    1.396   -0.783   Oh    23      1dD  -0.678000
   457  H3O    0.826    1.561   -1.684   Ho    23      1dD   0.417000
   458   C2   -1.222    0.562   -0.959   Cg    23      1dD   0.229000
   459   H2   -2.159    0.993   -0.602   H1    23      1dD   0.000000
   460   O2   -1.051    0.963   -2.352   Oh    23      1dD  -0.651000
   461  H2O   -1.842    0.726   -2.850   Ho    23      1dD   0.411000
   462   O1   -2.608   -0.413    1.037   Os    24      1dU  -0.388000
   463   C1   -1.243   -0.657    1.340   Cg    24      1dU   0.436000
   464   H1   -1.158   -1.259    2.244   H2    24      1dU   0.000000
   465   C2   -0.350    0.712    1.475   Cg    24      1dU   0.284000
   466   H2   -0.054    0.872    2.511   H1    24      1dU   0.000000
   467   C3    0.969    0.498    0.520   Cg    24      1dU   0.300000
   468   H3    1.808    0.230    1.163   H1    24      1dU   0.000000
   469   C4    0.674   -0.761   -0.457   Cg    24      1dU   0.135000
   470   H4    1.501   -1.469   -0.382   H1    24      1dU   0.000000
   471   C5    0.461   -0.391   -1.938   Cg    24      1dU   0.373000
   472  H51    1.361    0.078   -2.337   H1    24      1dU   0.000000
   473  H52   -0.368    0.310   -2.041   H1    24      1dU   0.000000
   474   O5    0.177   -1.571   -2.712   Oh    24      1dU  -0.725000
   475  H5O    0.691   -2.306   -2.370   Ho    24      1dU   0.418000
   476   O4   -0.633   -1.437    0.142   Os    24      1dU  -0.517000
   477   O3    1.321    1.700   -0.201   Oh    24      1dU  -0.642000
   478  H3O    0.592    2.325   -0.061   Ho    24      1dU   0.405000
   479   O2   -1.100    1.880    1.010   Oh    24      1dU  -0.680000
   480  H2O   -2.042    1.658    1.057   Ho    24      1dU   0.407000
   481   C2    0.975   -0.934    1.172   Cg    25      1jD   0.192000
   482   O5    0.275   -1.471   -0.122   Os    25      1jD  -0.410000
   483   C5    0.096   -0.365   -1.244   Cg    25      1jD   0.190000
   484   H5    0.648   -0.665   -2.135   H1    25      1jD   0.000000
   485   C6   -1.400   -0.222   -1.588   Cg    25      1jD   0.340000
   486  H61   -1.558    0.648   -2.225   H1    25      1jD   0.000000
   487  H62   -1.986   -0.092   -0.678   H1    25      1jD   0.000000
   488   O6   -1.869   -1.386   -2.296   Oh    25      1jD  -0.725000
   489  H6O   -1.361   -1.515   -3.099   Ho    25      1jD   0.425000
   490   C4    0.785    0.967   -0.618   Cg    25      1jD   0.233000
   491   H4    1.768    1.065   -1.079   H1    25      1jD   0.000000
   492   O4    0.045    2.193   -0.891   Oh    25      1jD  -0.671000
   493  H4O    0.648    2.887   -1.183   Ho    25      1jD   0.414000
   494   C3    1.020    0.692    0.983   Cg    25      1jD   0.393000
   495   H3    1.963    1.123    1.321   H1    25      1jD   0.000000
   496   O3   -0.076    1.315    1.710   Oh    25      1jD  -0.748000
   497  H3O   -0.425    2.009    1.131   Ho    25      1jD   0.446000
   498   C1    0.312   -1.484    2.466   Cg    25      1jD   0.389000
   499  H11    0.365   -2.574    2.482   H1    25      1jD   0.000000
   500  H12    0.841   -1.106    3.341   H1    25      1jD   0.000000
   501   O1   -1.067   -1.086    2.552   Os    25      1jD  -0.468000
   502   C2   -0.991   -0.569    1.021   Cg    26      1jU   0.351000
   503   C3   -0.322    0.931    1.080   Cg    26      1jU   0.223000
   504   H3    0.007    1.183    2.088   H1    26      1jU   0.000000
   505   C4    0.949    0.916    0.045   Cg    26      1jU   0.284000
   506   H4    1.858    0.793    0.635   H1    26      1jU   0.000000
   507   C5    0.801   -0.387   -0.903   Cg    26      1jU   0.100000
   508   H5    1.741   -0.937   -0.905   H1    26      1jU   0.000000
   509   C6    0.371   -0.100   -2.351   Cg    26      1jU   0.349000
   510  H61    1.076    0.568   -2.844   H1    26      1jU   0.000000
   511  H62   -0.617    0.357   -2.368   H1    26      1jU   0.000000
   512   O6    0.330   -1.349   -3.057   Oh    26      1jU  -0.684000
   513  H6O   -0.105   -1.991   -2.488   Ho    26      1jU   0.411000
   514   O5   -0.318   -1.270   -0.211   Os    26      1jU  -0.389000
   515   O4    1.057    2.147   -0.699   Oh    26      1jU  -0.657000
   516  H4O    0.250    2.647   -0.507   Ho    26      1jU   0.410000
   517   O3   -1.288    1.934    0.639   Oh    26      1jU  -0.671000
   518  H3O   -2.152    1.493    0.599   Ho    26      1jU   0.416000
   519   C1   -0.690   -1.367    2.320   Cg    26      1jU   0.333000
   520  H11    0.387   -1.416    2.478   H1    26      1jU   0.000000
   521  H12   -1.134   -0.866    3.180   H1    26      1jU   0.000000
   522   O1   -1.208   -2.718    2.247   Os    26      1jU  -0.476000
   523   C2    0.762   -1.435   -0.131   Cg    27      1pD   0.324000
   524   O5   -0.326   -0.852   -1.114   Os    27      1pD  -0.453000
   525   C5   -0.478    0.715   -0.990   Cg    27      1pD   0.194000
   526   H5   -0.235    1.177   -1.949   H1    27      1pD   0.000000
   527   C6   -1.928    1.035   -0.622   Cg    27      1pD   0.291000
   528  H61   -2.049    2.106   -0.460   H1    27      1pD   0.000000
   529  H62   -2.220    0.509    0.288   H1    27      1pD   0.000000
   530   O6   -2.774    0.626   -1.704   Oh    27      1pD  -0.695000
   531  H6O   -2.517    1.089   -2.504   Ho    27      1pD   0.411000
   532   C4    0.578    1.165    0.162   Cg    27      1pD   0.282000
   533   H4    0.145    1.861    0.883   H1    27      1pD   0.000000
   534   O4    1.666    1.800   -0.529   Oh    27      1pD  -0.683000
   535  H4O    2.340    2.057    0.104   Ho    27      1pD   0.421000
   536   C3    1.106   -0.199    0.878   Cg    27      1pD   0.334000
   537   H3    0.507   -0.329    1.779   H1    27      1pD   0.000000
   538   O3    2.485   -0.138    1.292   Oh    27      1pD  -0.661000
   539  H3O    2.607    0.600    1.894   Ho    27      1pD   0.415000
   540   C1    0.252   -2.726    0.520   Cg    27      1pD   0.286000
   541  H11    0.078   -3.493   -0.237   H1    27      1pD   0.000000
   542  H12    0.982   -3.107    1.235   H1    27      1pD   0.000000
   543   O1   -0.980   -2.461    1.203   Os    27      1pD  -0.466000
   544   C2   -1.111   -1.103    0.460   Cg    28      1pU   0.288000
   545   C3   -0.290   -0.129    1.478   Cg    28      1pU   0.334000
   546   H3   -0.988    0.540    1.984   H1    28      1pU   0.000000
   547   C4    0.704    0.803    0.582   Cg    28      1pU   0.192000
   548   H4    0.640    1.849    0.885   H1    28      1pU   0.000000
   549   C5    0.292    0.592   -0.974   Cg    28      1pU   0.369000
   550   H5    1.166    0.365   -1.587   H1    28      1pU   0.000000
   551   C6   -0.441    1.799   -1.561   Cg    28      1pU   0.215000
   552  H61    0.191    2.685   -1.514   H1    28      1pU   0.000000
   553  H62   -1.361    1.996   -1.008   H1    28      1pU   0.000000
   554   O6   -0.759    1.519   -2.930   Oh    28      1pU  -0.678000
   555  H6O    0.048    1.336   -3.416   Ho    28      1pU   0.421000
   556   O5   -0.688   -0.641   -0.987   Os    28      1pU  -0.480000
   557   O4    2.066    0.358    0.699   Oh    28      1pU  -0.711000
   558  H4O    2.633    0.921    0.167   Ho    28      1pU   0.438000
   559   O3    0.407   -0.870    2.498   Oh    28      1pU  -0.714000
   560  H3O    0.901   -0.263    3.054   Ho    28      1pU   0.424000
   561   C1   -0.862   -2.619    0.584   Cg    28      1pU   0.365000
   562  H11    0.206   -2.827    0.520   H1    28      1pU   0.000000
   563  H12   -1.225   -2.991    1.543   H1    28      1pU   0.000000
   564   O1   -1.531   -3.320   -0.478   Os    28      1pU  -0.463000
   565   O1    1.855   -1.597    1.492   Os    29      1rD  -0.388000
   566   C1    0.565   -1.015    1.574   Cg    29      1rD   0.445000
   567   H1    0.054   -1.305    2.493   H2    29      1rD   0.000000
   568   O4   -0.177   -1.558    0.312   Os    29      1rD  -0.513000
   569   C4   -0.293   -0.489   -0.860   Cg    29      1rD   0.327000
   570   H4    0.283   -0.837   -1.718   H1    29      1rD   0.000000
   571   C5   -1.763   -0.290   -1.272   Cg    29      1rD   0.195000
   572  H51   -1.840    0.538   -1.977   H1    29      1rD   0.000000
   573  H52   -2.364   -0.045   -0.396   H1    29      1rD   0.000000
   574   O5   -2.302   -1.473   -1.894   Oh    29      1rD  -0.667000
   575  H5O   -1.843   -1.668   -2.715   Ho    29      1rD   0.408000
   576   C3    0.354    0.872   -0.246   Cg    29      1rD   0.275000
   577   H3   -0.295    1.735   -0.401   H1    29      1rD   0.000000
   578   O3    1.620    1.111   -0.915   Oh    29      1rD  -0.739000
   579  H3O    2.339    0.848   -0.320   Ho    29      1rD   0.438000
   580   C2    0.603    0.609    1.354   Cg    29      1rD   0.318000
   581   H2   -0.268    1.008    1.874   H1    29      1rD   0.000000
   582   O2    1.773    1.304    1.886   Oh    29      1rD  -0.709000
   583  H2O    1.699    2.251    1.728   Ho    29      1rD   0.416000
   584   O1   -0.772   -1.187    2.431   Os    30      1rU  -0.388000
   585   C1    0.388   -0.787    1.716   Cg    30      1rU   0.378000
   586   H1    1.286   -1.097    2.253   H1    30      1rU   0.000000
   587   C2    0.328    0.822    1.441   Cg    30      1rU   0.293000
   588   H2   -0.401    1.315    2.086   H1    30      1rU   0.000000
   589   C3   -0.087    1.006   -0.138   Cg    30      1rU   0.289000
   590   H3   -1.138    1.293   -0.181   H1    30      1rU   0.000000
   591   C4    0.108   -0.423   -0.868   Cg    30      1rU   0.102000
   592   H4    1.014   -0.402   -1.474   H1    30      1rU   0.000000
   593   C5   -1.094   -0.803   -1.743   Cg    30      1rU   0.338000
   594  H51   -1.979   -0.956   -1.127   H1    30      1rU   0.000000
   595  H52   -1.303   -0.005   -2.455   H1    30      1rU   0.000000
   596   O5   -0.806   -2.007   -2.470   Oh    30      1rU  -0.692000
   597  H5O   -1.551   -2.229   -3.032   Ho    30      1rU   0.415000
   598   O4    0.327   -1.459    0.314   Os    30      1rU  -0.424000
   599   O3    0.693    2.023   -0.801   Oh    30      1rU  -0.683000
   600  H3O    1.509    2.120   -0.291   Ho    30      1rU   0.428000
   601   O2    1.647    1.399    1.697   Oh    30      1rU  -0.670000
   602  H2O    1.832    1.375    2.642   Ho    30      1rU   0.420000
   603   O1   -1.904   -1.932   -1.020   Os    31      1xD  -0.388000
   604   C1   -0.722   -1.173   -1.230   Cg    31      1xD   0.428000
   605   H1   -0.284   -1.394   -2.203   H1    31      1xD   0.000000
   606   O4    0.236   -1.586   -0.069   Os    31      1xD  -0.507000
   607   C4    0.410   -0.450    1.034   Cg    31      1xD   0.237000
   608   H4    0.015   -0.817    1.982   H1    31      1xD   0.000000
   609   C5    1.912   -0.145    1.216   Cg    31      1xD   0.280000
   610  H51    2.059    0.778    1.776   H1    31      1xD   0.000000
   611  H52    2.375   -0.955    1.778   H1    31      1xD   0.000000
   612   O5    2.569   -0.050   -0.063   Oh    31      1xD  -0.678000
   613  H5O    2.375   -0.853   -0.556   Ho    31      1xD   0.422000
   614   C3   -0.532    0.773    0.524   Cg    31      1xD   0.302000
   615   H3   -1.411    0.805    1.170   H1    31      1xD   0.000000
   616   O3    0.113    2.067    0.579   Oh    31      1xD  -0.714000
   617  H3O   -0.479    2.730    0.208   Ho    31      1xD   0.426000
   618   C2   -1.012    0.420   -0.998   Cg    31      1xD   0.248000
   619   H2   -0.389    0.977   -1.699   H1    31      1xD   0.000000
   620   O2   -2.398    0.805   -1.216   Oh    31      1xD  -0.657000
   621  H2O   -2.933   -0.000   -1.214   Ho    31      1xD   0.407000
   622   O1   -2.668   -0.557    0.925   Os    32      1xU  -0.388000
   623   C1   -1.289   -0.765    1.199   Cg    32      1xU   0.388000
   624   H1   -1.167   -1.397    2.078   H2    32      1xU   0.000000
   625   C2   -0.497    0.651    1.374   Cg    32      1xU   0.382000
   626   H2   -1.167    1.475    1.123   H1    32      1xU   0.000000
   627   C3    0.761    0.637    0.329   Cg    32      1xU   0.224000
   628   H3    1.692    0.506    0.881   H1    32      1xU   0.000000
   629   C4    0.573   -0.647   -0.651   Cg    32      1xU   0.142000
   630   H4    1.471   -1.264   -0.592   H1    32      1xU   0.000000
   631   C5    0.286   -0.323   -2.130   Cg    32      1xU   0.285000
   632  H51    1.112    0.249   -2.554   H1    32      1xU   0.000000
   633  H52   -0.626    0.269   -2.220   H1    32      1xU   0.000000
   634   O5    0.133   -1.540   -2.883   Oh    32      1xU  -0.635000
   635  H5O    0.856   -2.137   -2.678   Ho    32      1xU   0.396000
   636   O4   -0.640   -1.459   -0.035   Os    32      1xU  -0.427000
   637   O3    0.840    1.885   -0.405   Oh    32      1xU  -0.662000
   638  H3O    1.122    2.589    0.190   Ho    32      1xU   0.412000
   639   O2   -0.018    0.849    2.733   Oh    32      1xU  -0.731000
   640  H2O   -0.772    0.979    3.318   Ho    32      1xU   0.420000
   641   C1   -1.172   -1.225   -1.301   Cg    33      2aD   0.368000
   642   H1   -0.640   -1.686   -2.133   H2    33      2aD   0.000000
   643   O4   -0.497   -1.622    0.050   Os    33      2aD  -0.453000
   644   C4   -0.068   -0.371    0.923   Cg    33      2aD   0.147000
   645   H4   -0.713   -0.335    1.802   H1    33      2aD   0.000000
   646   C5    1.390   -0.490    1.375   Cg    33      2aD   0.338000
   647  H51    1.504   -1.333    2.056   H1    33      2aD   0.000000
   648  H52    1.700    0.417    1.894   H1    33      2aD   0.000000
   649   O5    2.227   -0.696    0.224   Oh    33      2aD  -0.696000
   650  H5O    2.054   -1.581   -0.113   Ho    33      2aD   0.399000
   651   C3   -0.339    0.919   -0.014   Cg    33      2aD   0.370000
   652   H3    0.605    1.396   -0.282   H1    33      2aD   0.000000
   653   O3   -1.149    1.878    0.701   Oh    33      2aD  -0.703000
   654  H3O   -1.295    2.648    0.142   Ho    33      2aD   0.404000
   655   C2   -1.102    0.404   -1.369   Cg    33      2aD   0.278000
   656   H2   -2.113    0.815   -1.398   H1    33      2aD   0.000000
   657   O2   -0.390    0.863   -2.556   Os    33      2aD  -0.452000
   658   C1    0.597   -0.798    1.878   Cg    34      2aU   0.477000
   659   H1    1.528   -1.095    2.361   H2    34      2aU   0.000000
   660   C2    0.526    0.813    1.604   Cg    34      2aU   0.328000
   661   H2    1.535    1.211    1.718   H1    34      2aU   0.000000
   662   C3    0.046    1.020    0.054   Cg    34      2aU   0.215000
   663   H3   -0.988    1.368    0.035   H1    34      2aU   0.000000
   664   C4    0.145   -0.420   -0.689   Cg    34      2aU   0.327000
   665   H4    0.983   -0.423   -1.388   H1    34      2aU   0.000000
   666   C5   -1.143   -0.823   -1.421   Cg    34      2aU   0.227000
   667  H51   -1.380   -0.095   -2.198   H1    34      2aU   0.000000
   668  H52   -1.976   -0.859   -0.719   H1    34      2aU   0.000000
   669   O5   -0.981   -2.121   -2.024   Oh    34      2aU  -0.650000
   670  H5O   -0.619   -2.728   -1.370   Ho    34      2aU   0.397000
   671   O4    0.458   -1.461    0.474   Os    34      2aU  -0.532000
   672   O3    0.878    2.001   -0.613   Oh    34      2aU  -0.728000
   673  H3O    0.740    2.868   -0.212   Ho    34      2aU   0.437000
   674   O2   -0.351    1.541    2.510   Os    34      2aU  -0.498000
   675   O2    2.111   -1.444    0.920   Os    35      2bD  -0.388000
   676   C2    0.824   -0.810    0.971   Cg    35      2bD   0.241000
   677   O5    0.082   -1.381   -0.283   Os    35      2bD  -0.452000
   678   C5   -0.059   -0.333   -1.466   Cg    35      2bD   0.271000
   679   H5    0.513   -0.686   -2.324   H1    35      2bD   0.000000
   680   C6   -1.545   -0.199   -1.860   Cg    35      2bD   0.281000
   681  H61   -1.681    0.643   -2.539   H1    35      2bD   0.000000
   682  H62   -2.152   -0.022   -0.971   H1    35      2bD   0.000000
   683   O6   -2.010   -1.392   -2.525   Oh    35      2bD  -0.679000
   684  H6O   -1.602   -1.469   -3.390   Ho    35      2bD   0.411000
   685   C4    0.636    1.024   -0.901   Cg    35      2bD   0.225000
   686   H4    1.596    1.134   -1.407   H1    35      2bD   0.000000
   687   O4   -0.151    2.223   -1.161   Oh    35      2bD  -0.710000
   688  H4O    0.401    3.005   -1.037   Ho    35      2bD   0.435000
   689   C3    0.910    0.805    0.697   Cg    35      2bD   0.440000
   690   H3    0.100    1.291    1.241   H1    35      2bD   0.000000
   691   O3    2.148    1.452    1.099   Oh    35      2bD  -0.732000
   692  H3O    1.948    2.140    1.737   Ho    35      2bD   0.404000
   693   C1    0.111   -1.210    2.284   Cg    35      2bD   0.313000
   694  H11   -0.047   -2.289    2.305   H1    35      2bD   0.000000
   695  H12    0.723   -0.940    3.144   H1    35      2bD   0.000000
   696   O1   -1.166   -0.549    2.397   Oh    35      2bD  -0.668000
   697  H1O   -1.690   -0.992    3.069   Ho    35      2bD   0.414000
   698   O2   -2.359   -0.416    0.667   Os    36      2bU  -0.388000
   699   C2   -0.933   -0.456    0.832   Cg    36      2bU   0.247000
   700   C1   -0.574   -1.275    2.101   Cg    36      2bU   0.299000
   701  H11    0.508   -1.280    2.238   H1    36      2bU   0.000000
   702  H12   -1.025   -0.821    2.985   H1    36      2bU   0.000000
   703   O1   -1.029   -2.642    1.995   Oh    36      2bU  -0.627000
   704  H1O   -0.693   -3.148    2.738   Ho    36      2bU   0.382000
   705   C3   -0.351    1.072    0.828   Cg    36      2bU   0.382000
   706   H3   -1.147    1.754    0.524   H1    36      2bU   0.000000
   707   C4    0.835    1.137   -0.298   Cg    36      2bU   0.283000
   708   H4    1.802    1.115    0.206   H1    36      2bU   0.000000
   709   C5    0.725   -0.207   -1.204   Cg    36      2bU   0.210000
   710   H5    1.700   -0.695   -1.234   H1    36      2bU   0.000000
   711   C6    0.230    0.018   -2.646   Cg    36      2bU   0.332000
   712  H61    0.908    0.692   -3.170   H1    36      2bU   0.000000
   713  H62   -0.763    0.469   -2.639   H1    36      2bU   0.000000
   714   O6    0.177   -1.229   -3.367   Oh    36      2bU  -0.701000
   715  H6O    1.022   -1.680   -3.311   Ho    36      2bU   0.409000
   716   O5   -0.288   -1.138   -0.424   Os    36      2bU  -0.385000
   717   O4    0.764    2.353   -1.089   Oh    36      2bU  -0.755000
   718  H4O    0.967    3.111   -0.530   Ho    36      2bU   0.434000
   719   O3    0.140    1.513    2.125   Oh    36      2bU  -0.742000
   720  H3O   -0.615    1.754    2.671   Ho    36      2bU   0.426000
   721   O2    2.211   -1.122    0.970   Os    37      2cD  -0.388000
   722   C2    0.842   -0.711    1.021   Cg    37      2cD   0.284000
   723   O5    0.201   -1.345   -0.256   Os    37      2cD  -0.498000
   724   C5   -0.059   -0.297   -1.415   Cg    37      2cD   0.309000
   725   H5    0.516   -0.582   -2.298   H1    37      2cD   0.000000
   726   C6   -1.556   -0.239   -1.762   Cg    37      2cD   0.265000
   727  H61   -1.764    0.643   -2.369   H1    37      2cD   0.000000
   728  H62   -2.148   -0.167   -0.849   H1    37      2cD   0.000000
   729   O6   -1.967   -1.406   -2.503   Oh    37      2cD  -0.664000
   730  H6O   -1.563   -1.417   -3.374   Ho    37      2cD   0.412000
   731   C4    0.469    1.118   -0.824   Cg    37      2cD   0.332000
   732   H4   -0.273    1.905   -0.965   H1    37      2cD   0.000000
   733   O4    1.682    1.511   -1.519   Oh    37      2cD  -0.784000
   734  H4O    2.406    0.912   -1.298   Ho    37      2cD   0.444000
   735   C3    0.811    0.906    0.764   Cg    37      2cD   0.282000
   736   H3    1.766    1.363    1.027   H1    37      2cD   0.000000
   737   O3   -0.232    1.563    1.547   Oh    37      2cD  -0.716000
   738  H3O   -0.079    2.515    1.549   Ho    37      2cD   0.432000
   739   C1    0.187   -1.240    2.330   Cg    37      2cD   0.370000
   740  H11    0.249   -2.329    2.369   H1    37      2cD   0.000000
   741  H12    0.720   -0.840    3.194   H1    37      2cD   0.000000
   742   O1   -1.196   -0.847    2.420   Oh    37      2cD  -0.688000
   743  H1O   -1.221    0.106    2.240   Ho    37      2cD   0.414000
   744   O2   -2.325   -0.738    0.900   Os    38      2cU  -0.388000
   745   C2   -0.926   -0.839    0.569   Cg    38      2cU   0.239000
   746   C1   -0.508   -2.306    0.758   Cg    38      2cU   0.287000
   747  H11    0.571   -2.405    0.633   H1    38      2cU   0.000000
   748  H12   -0.766   -2.653    1.760   H1    38      2cU   0.000000
   749   O1   -1.160   -3.139   -0.215   Oh    38      2cU  -0.624000
   750  H1O   -0.892   -4.051   -0.087   Ho    38      2cU   0.401000
   751   C3   -0.018    0.165    1.487   Cg    38      2cU   0.333000
   752   H3    0.509   -0.371    2.278   H1    38      2cU   0.000000
   753   C4    0.997    0.941    0.486   Cg    38      2cU   0.293000
   754   H4    1.081    2.007    0.709   H1    38      2cU   0.000000
   755   C5    0.500    0.671   -1.035   Cg    38      2cU   0.310000
   756   H5    1.316    0.287   -1.650   H1    38      2cU   0.000000
   757   C6   -0.097    1.917   -1.690   Cg    38      2cU   0.272000
   758  H61    0.642    2.718   -1.725   H1    38      2cU   0.000000
   759  H62   -0.965    2.267   -1.130   H1    38      2cU   0.000000
   760   O6   -0.495    1.586   -3.027   Oh    38      2cU  -0.652000
   761  H6O    0.269    1.280   -3.522   Ho    38      2cU   0.397000
   762   O5   -0.630   -0.423   -0.921   Os    38      2cU  -0.449000
   763   O4    2.286    0.332    0.639   Oh    38      2cU  -0.763000
   764  H4O    2.911    0.750    0.042   Ho    38      2cU   0.431000
   765   O3   -0.822    1.200    2.082   Oh    38      2cU  -0.691000
   766  H3O   -1.480    0.802    2.657   Ho    38      2cU   0.410000
   767   C1   -1.541   -1.101   -0.967   Cg    39      2dD   0.380000
   768   H1   -1.172   -1.626   -1.849   H1    39      2dD   0.000000
   769   O4   -0.618   -1.417    0.253   Os    39      2dD  -0.423000
   770   C4    0.053   -0.119    0.873   Cg    39      2dD   0.189000
   771   H4   -0.468    0.110    1.804   H1    39      2dD   0.000000
   772   C5    1.535   -0.379    1.190   Cg    39      2dD   0.305000
   773  H51    2.069   -0.692    0.293   H1    39      2dD   0.000000
   774  H52    2.004    0.526    1.577   H1    39      2dD   0.000000
   775   O5    1.625   -1.419    2.178   Oh    39      2dD  -0.697000
   776  H5O    1.166   -2.194    1.841   Ho    39      2dD   0.414000
   777   C3   -0.288    1.072   -0.176   Cg    39      2dD   0.298000
   778   H3   -0.594    1.982    0.340   H1    39      2dD   0.000000
   779   O3    0.882    1.352   -0.979   Oh    39      2dD  -0.678000
   780  H3O    0.565    1.518   -1.879   Ho    39      2dD   0.417000
   781   C2   -1.484    0.518   -1.154   Cg    39      2dD   0.229000
   782   H2   -2.420    0.950   -0.797   H1    39      2dD   0.000000
   783   O2   -1.313    0.919   -2.547   Os    39      2dD  -0.434000
   784   C1   -1.516   -0.584    1.463   Cg    40      2dU   0.436000
   785   H1   -1.432   -1.186    2.367   H2    40      2dU   0.000000
   786   C2   -0.623    0.785    1.598   Cg    40      2dU   0.284000
   787   H2   -0.328    0.945    2.634   H1    40      2dU   0.000000
   788   C3    0.695    0.571    0.643   Cg    40      2dU   0.300000
   789   H3    1.535    0.304    1.286   H1    40      2dU   0.000000
   790   C4    0.401   -0.687   -0.333   Cg    40      2dU   0.135000
   791   H4    1.227   -1.396   -0.259   H1    40      2dU   0.000000
   792   C5    0.187   -0.318   -1.815   Cg    40      2dU   0.373000
   793  H51    1.087    0.151   -2.213   H1    40      2dU   0.000000
   794  H52   -0.642    0.384   -1.918   H1    40      2dU   0.000000
   795   O5   -0.096   -1.498   -2.589   Oh    40      2dU  -0.725000
   796  H5O    0.417   -2.232   -2.247   Ho    40      2dU   0.418000
   797   O4   -0.906   -1.363    0.265   Os    40      2dU  -0.517000
   798   O3    1.048    1.774   -0.078   Oh    40      2dU  -0.642000
   799  H3O    0.319    2.398    0.062   Ho    40      2dU   0.405000
   800   O2   -1.373    1.953    1.133   Os    40      2dU  -0.467000
   801   O2    2.274   -1.343    0.947   Os    41      2jD  -0.388000
   802   C2    0.921   -0.867    1.020   Cg    41      2jD   0.192000
   803   O5    0.220   -1.405   -0.275   Os    41      2jD  -0.410000
   804   C5    0.041   -0.299   -1.396   Cg    41      2jD   0.190000
   805   H5    0.594   -0.598   -2.288   H1    41      2jD   0.000000
   806   C6   -1.455   -0.155   -1.740   Cg    41      2jD   0.340000
   807  H61   -1.612    0.715   -2.377   H1    41      2jD   0.000000
   808  H62   -2.041   -0.025   -0.830   H1    41      2jD   0.000000
   809   O6   -1.924   -1.319   -2.448   Oh    41      2jD  -0.725000
   810  H6O   -1.416   -1.448   -3.251   Ho    41      2jD   0.425000
   811   C4    0.731    1.034   -0.771   Cg    41      2jD   0.233000
   812   H4    1.714    1.132   -1.232   H1    41      2jD   0.000000
   813   O4   -0.010    2.260   -1.043   Oh    41      2jD  -0.671000
   814  H4O    0.594    2.954   -1.335   Ho    41      2jD   0.414000
   815   C3    0.966    0.759    0.831   Cg    41      2jD   0.393000
   816   H3    1.909    1.190    1.169   H1    41      2jD   0.000000
   817   O3   -0.130    1.382    1.558   Oh    41      2jD  -0.748000
   818  H3O   -0.479    2.076    0.979   Ho    41      2jD   0.446000
   819   C1    0.258   -1.417    2.313   Cg    41      2jD   0.389000
   820  H11    0.311   -2.507    2.330   H1    41      2jD   0.000000
   821  H12    0.787   -1.039    3.189   H1    41      2jD   0.000000
   822   O1   -1.121   -1.019    2.400   Oh    41      2jD  -0.654000
   823  H1O   -1.132   -0.061    2.250   Ho    41      2jD   0.380000
   824   O2   -2.271   -0.342    0.648   Os    42      2jU  -0.388000
   825   C2   -0.845   -0.407    0.854   Cg    42      2jU   0.351000
   826   C1   -0.545   -1.206    2.153   Cg    42      2jU   0.333000
   827  H11    0.532   -1.254    2.311   H1    42      2jU   0.000000
   828  H12   -0.989   -0.704    3.013   H1    42      2jU   0.000000
   829   O1   -1.063   -2.556    2.080   Oh    42      2jU  -0.697000
   830  H1O   -0.779   -3.053    2.853   Ho    42      2jU   0.415000
   831   C3   -0.177    1.093    0.913   Cg    42      2jU   0.223000
   832   H3    0.152    1.345    1.921   H1    42      2jU   0.000000
   833   C4    1.094    1.078   -0.121   Cg    42      2jU   0.284000
   834   H4    2.003    0.955    0.469   H1    42      2jU   0.000000
   835   C5    0.946   -0.226   -1.070   Cg    42      2jU   0.100000
   836   H5    1.886   -0.776   -1.071   H1    42      2jU   0.000000
   837   C6    0.516    0.061   -2.517   Cg    42      2jU   0.349000
   838  H61    1.222    0.730   -3.010   H1    42      2jU   0.000000
   839  H62   -0.472    0.519   -2.534   H1    42      2jU   0.000000
   840   O6    0.476   -1.187   -3.224   Oh    42      2jU  -0.684000
   841  H6O    0.041   -1.829   -2.655   Ho    42      2jU   0.411000
   842   O5   -0.173   -1.108   -0.378   Os    42      2jU  -0.389000
   843   O4    1.202    2.308   -0.866   Oh    42      2jU  -0.657000
   844  H4O    0.395    2.808   -0.674   Ho    42      2jU   0.410000
   845   O3   -1.143    2.096    0.472   Oh    42      2jU  -0.671000
   846  H3O   -2.007    1.655    0.432   Ho    42      2jU   0.416000
   847   O2    1.913   -1.550   -0.913   Os    43      2pD  -0.388000
   848   C2    0.734   -1.216   -0.163   Cg    43      2pD   0.324000
   849   O5   -0.354   -0.633   -1.146   Os    43      2pD  -0.453000
   850   C5   -0.506    0.934   -1.022   Cg    43      2pD   0.194000
   851   H5   -0.263    1.396   -1.981   H1    43      2pD   0.000000
   852   C6   -1.956    1.254   -0.655   Cg    43      2pD   0.291000
   853  H61   -2.077    2.325   -0.492   H1    43      2pD   0.000000
   854  H62   -2.248    0.728    0.255   H1    43      2pD   0.000000
   855   O6   -2.802    0.845   -1.736   Oh    43      2pD  -0.695000
   856  H6O   -2.545    1.308   -2.537   Ho    43      2pD   0.411000
   857   C4    0.549    1.384    0.130   Cg    43      2pD   0.282000
   858   H4    0.117    2.079    0.851   H1    43      2pD   0.000000
   859   O4    1.638    2.019   -0.560   Oh    43      2pD  -0.683000
   860  H4O    2.312    2.276    0.073   Ho    43      2pD   0.421000
   861   C3    1.078    0.020    0.846   Cg    43      2pD   0.334000
   862   H3    0.479   -0.111    1.747   H1    43      2pD   0.000000
   863   O3    2.457    0.081    1.260   Oh    43      2pD  -0.661000
   864  H3O    2.578    0.819    1.862   Ho    43      2pD   0.415000
   865   C1    0.224   -2.507    0.487   Cg    43      2pD   0.286000
   866  H11    0.050   -3.274   -0.269   H1    43      2pD   0.000000
   867  H12    0.954   -2.888    1.203   H1    43      2pD   0.000000
   868   O1   -1.008   -2.242    1.171   Oh    43      2pD  -0.691000
   869  H1O   -1.323   -3.047    1.588   Ho    43      2pD   0.419000
   870   O2   -2.338   -0.641    0.689   Os    44      2pU  -0.388000
   871   C2   -0.942   -0.880    0.446   Cg    44      2pU   0.288000
   872   C1   -0.694   -2.396    0.570   Cg    44      2pU   0.365000
   873  H11    0.374   -2.604    0.506   H1    44      2pU   0.000000
   874  H12   -1.056   -2.768    1.529   H1    44      2pU   0.000000
   875   O1   -1.362   -3.097   -0.492   Oh    44      2pU  -0.687000
   876  H1O   -1.208   -4.040   -0.400   Ho    44      2pU   0.418000
   877   C3   -0.122    0.094    1.464   Cg    44      2pU   0.334000
   878   H3   -0.819    0.763    1.970   H1    44      2pU   0.000000
   879   C4    0.873    1.026    0.569   Cg    44      2pU   0.192000
   880   H4    0.809    2.072    0.872   H1    44      2pU   0.000000
   881   C5    0.461    0.815   -0.987   Cg    44      2pU   0.369000
   882   H5    1.335    0.588   -1.601   H1    44      2pU   0.000000
   883   C6   -0.272    2.022   -1.574   Cg    44      2pU   0.215000
   884  H61    0.360    2.908   -1.528   H1    44      2pU   0.000000
   885  H62   -1.192    2.219   -1.022   H1    44      2pU   0.000000
   886   O6   -0.590    1.743   -2.944   Oh    44      2pU  -0.678000
   887  H6O    0.218    1.560   -3.429   Ho    44      2pU   0.421000
   888   O5   -0.519   -0.419   -1.001   Os    44      2pU  -0.480000
   889   O4    2.235    0.580    0.685   Oh    44      2pU  -0.711000
   890  H4O    2.802    1.144    0.153   Ho    44      2pU   0.438000
   891   O3    0.576   -0.647    2.485   Oh    44      2pU  -0.714000
   892  H3O    1.070   -0.040    3.040   Ho    44      2pU   0.424000
   893   C1    0.774   -0.976    1.764   Cg    45      2rD   0.445000
   894   H1    0.263   -1.266    2.682   H2    45      2rD   0.000000
   895   O4    0.032   -1.519    0.502   Os    45      2rD  -0.513000
   896   C4   -0.084   -0.451   -0.670   Cg    45      2rD   0.327000
   897   H4    0.492   -0.798   -1.529   H1    45      2rD   0.000000
   898   C5   -1.554   -0.251   -1.083   Cg    45      2rD   0.195000
   899  H51   -1.631    0.577   -1.787   H1    45      2rD   0.000000
   900  H52   -2.155   -0.007   -0.206   H1    45      2rD   0.000000
   901   O5   -2.093   -1.435   -1.704   Oh    45      2rD  -0.667000
   902  H5O   -1.634   -1.630   -2.526   Ho    45      2rD   0.408000
   903   C3    0.563    0.911   -0.057   Cg    45      2rD   0.275000
   904   H3   -0.086    1.773   -0.212   H1    45      2rD   0.000000
   905   O3    1.829    1.150   -0.725   Oh    45      2rD  -0.739000
   906  H3O    2.548    0.887   -0.131   Ho    45      2rD   0.438000
   907   C2    0.812    0.648    1.543   Cg    45      2rD   0.318000
   908   H2   -0.059    1.046    2.064   H1    45      2rD   0.000000
   909   O2    1.981    1.343    2.075   Os    45      2rD  -0.487000
   910   C1    0.450   -0.775    2.015   Cg    46      2rU   0.378000
   911   H1    1.348   -1.085    2.551   H1    46      2rU   0.000000
   912   C2    0.390    0.833    1.740   Cg    46      2rU   0.293000
   913   H2   -0.339    1.327    2.384   H1    46      2rU   0.000000
   914   C3   -0.024    1.017    0.160   Cg    46      2rU   0.289000
   915   H3   -1.076    1.304    0.117   H1    46      2rU   0.000000
   916   C4    0.170   -0.412   -0.569   Cg    46      2rU   0.102000
   917   H4    1.077   -0.391   -1.176   H1    46      2rU   0.000000
   918   C5   -1.031   -0.792   -1.445   Cg    46      2rU   0.338000
   919  H51   -1.917   -0.945   -0.829   H1    46      2rU   0.000000
   920  H52   -1.240    0.006   -2.157   H1    46      2rU   0.000000
   921   O5   -0.744   -1.996   -2.172   Oh    46      2rU  -0.692000
   922  H5O   -1.489   -2.218   -2.734   Ho    46      2rU   0.415000
   923   O4    0.389   -1.448    0.612   Os    46      2rU  -0.424000
   924   O3    0.755    2.034   -0.503   Oh    46      2rU  -0.683000
   925  H3O    1.572    2.131    0.008   Ho    46      2rU   0.428000
   926   O2    1.709    1.410    1.996   Os    46      2rU  -0.444000
   927   C1   -1.006   -1.286   -1.361   Cg    47      2xD   0.428000
   928   H1   -0.569   -1.507   -2.335   H1    47      2xD   0.000000
   929   O4   -0.049   -1.700   -0.200   Os    47      2xD  -0.507000
   930   C4    0.126   -0.564    0.903   Cg    47      2xD   0.237000
   931   H4   -0.270   -0.931    1.850   H1    47      2xD   0.000000
   932   C5    1.627   -0.259    1.085   Cg    47      2xD   0.280000
   933  H51    1.775    0.665    1.645   H1    47      2xD   0.000000
   934  H52    2.091   -1.069    1.647   H1    47      2xD   0.000000
   935   O5    2.284   -0.164   -0.194   Oh    47      2xD  -0.678000
   936  H5O    2.090   -0.967   -0.687   Ho    47      2xD   0.422000
   937   C3   -0.816    0.659    0.393   Cg    47      2xD   0.302000
   938   H3   -1.695    0.691    1.038   H1    47      2xD   0.000000
   939   O3   -0.171    1.953    0.447   Oh    47      2xD  -0.714000
   940  H3O   -0.764    2.616    0.077   Ho    47      2xD   0.426000
   941   C2   -1.297    0.307   -1.129   Cg    47      2xD   0.248000
   942   H2   -0.673    0.863   -1.831   H1    47      2xD   0.000000
   943   O2   -2.683    0.692   -1.347   Os    47      2xD  -0.444000
   944   C1   -1.491   -0.740    1.448   Cg    48      2xU   0.388000
   945   H1   -1.369   -1.372    2.328   H2    48      2xU   0.000000
   946   C2   -0.700    0.676    1.624   Cg    48      2xU   0.382000
   947   H2   -1.369    1.500    1.372   H1    48      2xU   0.000000
   948   C3    0.558    0.662    0.578   Cg    48      2xU   0.224000
   949   H3    1.490    0.531    1.130   H1    48      2xU   0.000000
   950   C4    0.371   -0.622   -0.402   Cg    48      2xU   0.142000
   951   H4    1.268   -1.239   -0.343   H1    48      2xU   0.000000
   952   C5    0.083   -0.298   -1.881   Cg    48      2xU   0.285000
   953  H51    0.909    0.273   -2.304   H1    48      2xU   0.000000
   954  H52   -0.829    0.294   -1.970   H1    48      2xU   0.000000
   955   O5   -0.069   -1.516   -2.633   Oh    48      2xU  -0.635000
   956  H5O    0.653   -2.112   -2.429   Ho    48      2xU   0.396000
   957   O4   -0.842   -1.434    0.215   Os    48      2xU  -0.427000
   958   O3    0.638    1.910   -0.156   Oh    48      2xU  -0.662000
   959  H3O    0.920    2.614    0.439   Ho    48      2xU   0.412000
   960   O2   -0.221    0.874    2.982   Os    48      2xU  -0.505000
   961   C1   -1.276   -1.096   -1.138   Cg    49      3aD   0.368000
   962   H1   -0.744   -1.556   -1.970   H2    49      3aD   0.000000
   963   O4   -0.601   -1.492    0.213   Os    49      3aD  -0.453000
   964   C4   -0.172   -0.241    1.086   Cg    49      3aD   0.147000
   965   H4   -0.817   -0.205    1.966   H1    49      3aD   0.000000
   966   C5    1.286   -0.360    1.538   Cg    49      3aD   0.338000
   967  H51    1.400   -1.204    2.219   H1    49      3aD   0.000000
   968  H52    1.596    0.547    2.057   H1    49      3aD   0.000000
   969   O5    2.124   -0.566    0.387   Oh    49      3aD  -0.696000
   970  H5O    1.950   -1.451    0.050   Ho    49      3aD   0.399000
   971   C3   -0.443    1.049    0.149   Cg    49      3aD   0.370000
   972   H3    0.501    1.526   -0.119   H1    49      3aD   0.000000
   973   C2   -1.206    0.534   -1.206   Cg    49      3aD   0.278000
   974   H2   -2.217    0.945   -1.235   H1    49      3aD   0.000000
   975   O2   -0.494    0.993   -2.393   Oh    49      3aD  -0.688000
   976  H2O    0.367    0.571   -2.467   Ho    49      3aD   0.430000
   977   O3   -1.253    2.008    0.864   Os    49      3aD  -0.493000
   978   C1    0.694   -0.682    1.691   Cg    50      3aU   0.477000
   979   H1    1.625   -0.979    2.173   H2    50      3aU   0.000000
   980   C2    0.623    0.929    1.416   Cg    50      3aU   0.328000
   981   H2    1.632    1.327    1.531   H1    50      3aU   0.000000
   982   O2   -0.255    1.657    2.322   Oh    50      3aU  -0.721000
   983  H2O   -0.806    1.013    2.788   Ho    50      3aU   0.417000
   984   C3    0.143    1.136   -0.134   Cg    50      3aU   0.215000
   985   H3   -0.891    1.484   -0.153   H1    50      3aU   0.000000
   986   C4    0.242   -0.304   -0.876   Cg    50      3aU   0.327000
   987   H4    1.080   -0.307   -1.575   H1    50      3aU   0.000000
   988   C5   -1.047   -0.707   -1.609   Cg    50      3aU   0.227000
   989  H51   -1.283    0.021   -2.385   H1    50      3aU   0.000000
   990  H52   -1.879   -0.743   -0.906   H1    50      3aU   0.000000
   991   O5   -0.885   -2.005   -2.211   Oh    50      3aU  -0.650000
   992  H5O   -0.522   -2.612   -1.558   Ho    50      3aU   0.397000
   993   O4    0.554   -1.345    0.286   Os    50      3aU  -0.532000
   994   O3    0.975    2.117   -0.801   Os    50      3aU  -0.485000
   995   C2    1.017   -0.777    1.098   Cg    51      3bD   0.241000
   996   C1    0.304   -1.177    2.410   Cg    51      3bD   0.313000
   997  H11    0.146   -2.256    2.432   H1    51      3bD   0.000000
   998  H12    0.916   -0.907    3.271   H1    51      3bD   0.000000
   999   O1   -0.973   -0.516    2.523   Oh    51      3bD  -0.668000
  1000  H1O   -1.497   -0.959    3.195   Ho    51      3bD   0.414000
  1001   O5    0.275   -1.348   -0.156   Os    51      3bD  -0.452000
  1002   C5    0.134   -0.299   -1.339   Cg    51      3bD   0.271000
  1003   H5    0.707   -0.653   -2.198   H1    51      3bD   0.000000
  1004   C6   -1.352   -0.166   -1.734   Cg    51      3bD   0.281000
  1005  H61   -1.487    0.677   -2.413   H1    51      3bD   0.000000
  1006  H62   -1.959    0.011   -0.845   H1    51      3bD   0.000000
  1007   O6   -1.817   -1.359   -2.399   Oh    51      3bD  -0.679000
  1008  H6O   -1.409   -1.435   -3.264   Ho    51      3bD   0.411000
  1009   C4    0.829    1.057   -0.774   Cg    51      3bD   0.225000
  1010   H4    1.790    1.167   -1.280   H1    51      3bD   0.000000
  1011   O4    0.043    2.256   -1.034   Oh    51      3bD  -0.710000
  1012  H4O    0.594    3.038   -0.911   Ho    51      3bD   0.435000
  1013   C3    1.104    0.838    0.824   Cg    51      3bD   0.440000
  1014   H3    0.293    1.324    1.367   H1    51      3bD   0.000000
  1015   O3    2.341    1.485    1.226   Os    51      3bD  -0.522000
  1016   C2   -1.075   -0.392    0.990   Cg    52      3bU   0.247000
  1017   C1   -0.716   -1.211    2.260   Cg    52      3bU   0.299000
  1018  H11    0.366   -1.216    2.397   H1    52      3bU   0.000000
  1019  H12   -1.166   -0.757    3.144   H1    52      3bU   0.000000
  1020   O1   -1.171   -2.578    2.154   Oh    52      3bU  -0.627000
  1021  H1O   -0.835   -3.085    2.897   Ho    52      3bU   0.382000
  1022   C3   -0.493    1.135    0.987   Cg    52      3bU   0.382000
  1023   H3   -1.288    1.818    0.683   H1    52      3bU   0.000000
  1024   C4    0.693    1.200   -0.139   Cg    52      3bU   0.283000
  1025   H4    1.660    1.179    0.365   H1    52      3bU   0.000000
  1026   C5    0.584   -0.143   -1.045   Cg    52      3bU   0.210000
  1027   H5    1.559   -0.632   -1.075   H1    52      3bU   0.000000
  1028   C6    0.088    0.082   -2.487   Cg    52      3bU   0.332000
  1029  H61    0.767    0.755   -3.011   H1    52      3bU   0.000000
  1030  H62   -0.904    0.533   -2.480   H1    52      3bU   0.000000
  1031   O6    0.036   -1.165   -3.208   Oh    52      3bU  -0.701000
  1032  H6O    0.880   -1.616   -3.151   Ho    52      3bU   0.409000
  1033   O5   -0.430   -1.075   -0.265   Os    52      3bU  -0.385000
  1034   O4    0.622    2.417   -0.930   Oh    52      3bU  -0.755000
  1035  H4O    0.825    3.175   -0.371   Ho    52      3bU   0.434000
  1036   O3   -0.002    1.576    2.283   Os    52      3bU  -0.510000
  1037   C2    0.944   -0.645    1.141   Cg    53      3cD   0.284000
  1038   C1    0.289   -1.174    2.450   Cg    53      3cD   0.370000
  1039  H11    0.350   -2.263    2.489   H1    53      3cD   0.000000
  1040  H12    0.821   -0.774    3.314   H1    53      3cD   0.000000
  1041   O1   -1.094   -0.781    2.540   Oh    53      3cD  -0.688000
  1042  H1O   -1.120    0.172    2.360   Ho    53      3cD   0.414000
  1043   O5    0.302   -1.279   -0.137   Os    53      3cD  -0.498000
  1044   C5    0.042   -0.230   -1.295   Cg    53      3cD   0.309000
  1045   H5    0.618   -0.515   -2.178   H1    53      3cD   0.000000
  1046   C6   -1.455   -0.172   -1.642   Cg    53      3cD   0.265000
  1047  H61   -1.662    0.709   -2.249   H1    53      3cD   0.000000
  1048  H62   -2.047   -0.100   -0.728   H1    53      3cD   0.000000
  1049   O6   -1.865   -1.339   -2.383   Oh    53      3cD  -0.664000
  1050  H6O   -1.462   -1.351   -3.254   Ho    53      3cD   0.412000
  1051   C4    0.570    1.184   -0.704   Cg    53      3cD   0.332000
  1052   H4   -0.171    1.972   -0.845   H1    53      3cD   0.000000
  1053   O4    1.784    1.578   -1.399   Oh    53      3cD  -0.784000
  1054  H4O    2.507    0.979   -1.178   Ho    53      3cD   0.444000
  1055   C3    0.912    0.972    0.884   Cg    53      3cD   0.282000
  1056   H3    1.868    1.429    1.147   H1    53      3cD   0.000000
  1057   O3   -0.131    1.629    1.667   Os    53      3cD  -0.478000
  1058   C2   -1.107   -0.836    0.738   Cg    54      3cU   0.239000
  1059   C1   -0.690   -2.303    0.927   Cg    54      3cU   0.287000
  1060  H11    0.390   -2.402    0.802   H1    54      3cU   0.000000
  1061  H12   -0.947   -2.650    1.929   H1    54      3cU   0.000000
  1062   O1   -1.341   -3.135   -0.046   Oh    54      3cU  -0.624000
  1063  H1O   -1.073   -4.048    0.082   Ho    54      3cU   0.401000
  1064   C3   -0.199    0.168    1.657   Cg    54      3cU   0.333000
  1065   H3    0.327   -0.368    2.448   H1    54      3cU   0.000000
  1066   C4    0.816    0.945    0.655   Cg    54      3cU   0.293000
  1067   H4    0.900    2.010    0.878   H1    54      3cU   0.000000
  1068   C5    0.319    0.675   -0.865   Cg    54      3cU   0.310000
  1069   H5    1.135    0.290   -1.480   H1    54      3cU   0.000000
  1070   C6   -0.278    1.920   -1.521   Cg    54      3cU   0.272000
  1071  H61    0.461    2.721   -1.556   H1    54      3cU   0.000000
  1072  H62   -1.146    2.270   -0.960   H1    54      3cU   0.000000
  1073   O6   -0.675    1.589   -2.857   Oh    54      3cU  -0.652000
  1074  H6O    0.088    1.283   -3.352   Ho    54      3cU   0.397000
  1075   O5   -0.811   -0.420   -0.751   Os    54      3cU  -0.449000
  1076   O4    2.105    0.335    0.809   Oh    54      3cU  -0.763000
  1077  H4O    2.730    0.753    0.212   Ho    54      3cU   0.431000
  1078   O3   -1.003    1.203    2.251   Os    54      3cU  -0.475000
  1079   C1   -1.384   -1.052   -0.899   Cg    55      3dD   0.380000
  1080   H1   -1.016   -1.577   -1.780   H1    55      3dD   0.000000
  1081   O4   -0.462   -1.368    0.322   Os    55      3dD  -0.423000
  1082   C4    0.210   -0.070    0.942   Cg    55      3dD   0.189000
  1083   H4   -0.311    0.159    1.872   H1    55      3dD   0.000000
  1084   C5    1.692   -0.330    1.258   Cg    55      3dD   0.305000
  1085  H51    2.226   -0.643    0.361   H1    55      3dD   0.000000
  1086  H52    2.161    0.575    1.646   H1    55      3dD   0.000000
  1087   O5    1.782   -1.370    2.247   Oh    55      3dD  -0.697000
  1088  H5O    1.323   -2.145    1.909   Ho    55      3dD   0.414000
  1089   C3   -0.131    1.121   -0.108   Cg    55      3dD   0.298000
  1090   H3   -0.437    2.031    0.408   H1    55      3dD   0.000000
  1091   C2   -1.327    0.568   -1.086   Cg    55      3dD   0.229000
  1092   H2   -2.263    0.999   -0.729   H1    55      3dD   0.000000
  1093   O2   -1.156    0.968   -2.478   Oh    55      3dD  -0.651000
  1094  H2O   -1.947    0.732   -2.976   Ho    55      3dD   0.411000
  1095   O3    1.039    1.401   -0.910   Os    55      3dD  -0.455000
  1096   C1   -1.361   -0.545    1.397   Cg    56      3dU   0.436000
  1097   H1   -1.277   -1.147    2.302   H2    56      3dU   0.000000
  1098   C2   -0.468    0.824    1.533   Cg    56      3dU   0.284000
  1099   H2   -0.173    0.984    2.568   H1    56      3dU   0.000000
  1100   O2   -1.218    1.992    1.068   Oh    56      3dU  -0.680000
  1101  H2O   -2.160    1.771    1.114   Ho    56      3dU   0.407000
  1102   C3    0.850    0.610    0.577   Cg    56      3dU   0.300000
  1103   H3    1.690    0.343    1.220   H1    56      3dU   0.000000
  1104   C4    0.555   -0.648   -0.399   Cg    56      3dU   0.135000
  1105   H4    1.382   -1.357   -0.324   H1    56      3dU   0.000000
  1106   C5    0.342   -0.279   -1.881   Cg    56      3dU   0.373000
  1107  H51    1.242    0.190   -2.279   H1    56      3dU   0.000000
  1108  H52   -0.487    0.423   -1.984   H1    56      3dU   0.000000
  1109   O5    0.059   -1.459   -2.654   Oh    56      3dU  -0.725000
  1110  H5O    0.572   -2.193   -2.313   Ho    56      3dU   0.418000
  1111   O4   -0.751   -1.324    0.199   Os    56      3dU  -0.517000
  1112   O3    1.203    1.813   -0.144   Os    56      3dU  -0.431000
  1113   C2    1.006   -0.832    1.112   Cg    57      3jD   0.192000
  1114   C1    0.343   -1.382    2.405   Cg    57      3jD   0.389000
  1115  H11    0.396   -2.472    2.421   H1    57      3jD   0.000000
  1116  H12    0.873   -1.004    3.281   H1    57      3jD   0.000000
  1117   O1   -1.036   -0.984    2.491   Oh    57      3jD  -0.654000
  1118  H1O   -1.047   -0.027    2.342   Ho    57      3jD   0.380000
  1119   O5    0.306   -1.370   -0.183   Os    57      3jD  -0.410000
  1120   C5    0.127   -0.264   -1.304   Cg    57      3jD   0.190000
  1121   H5    0.679   -0.563   -2.196   H1    57      3jD   0.000000
  1122   C6   -1.369   -0.120   -1.649   Cg    57      3jD   0.340000
  1123  H61   -1.527    0.750   -2.285   H1    57      3jD   0.000000
  1124  H62   -1.955    0.010   -0.739   H1    57      3jD   0.000000
  1125   O6   -1.838   -1.285   -2.357   Oh    57      3jD  -0.725000
  1126  H6O   -1.330   -1.413   -3.159   Ho    57      3jD   0.425000
  1127   C4    0.816    1.069   -0.679   Cg    57      3jD   0.233000
  1128   H4    1.799    1.167   -1.140   H1    57      3jD   0.000000
  1129   O4    0.076    2.295   -0.952   Oh    57      3jD  -0.671000
  1130  H4O    0.679    2.989   -1.243   Ho    57      3jD   0.414000
  1131   C3    1.051    0.794    0.923   Cg    57      3jD   0.393000
  1132   H3    1.994    1.225    1.261   H1    57      3jD   0.000000
  1133   O3   -0.044    1.417    1.649   Os    57      3jD  -0.496000
  1134   C2   -1.049   -0.344    0.906   Cg    58      3jU   0.351000
  1135   C1   -0.749   -1.143    2.205   Cg    58      3jU   0.333000
  1136  H11    0.329   -1.191    2.363   H1    58      3jU   0.000000
  1137  H12   -1.192   -0.642    3.064   H1    58      3jU   0.000000
  1138   O1   -1.266   -2.494    2.132   Oh    58      3jU  -0.697000
  1139  H1O   -0.983   -2.990    2.904   Ho    58      3jU   0.415000
  1140   C3   -0.381    1.155    0.965   Cg    58      3jU   0.223000
  1141   H3   -0.052    1.407    1.973   H1    58      3jU   0.000000
  1142   C4    0.890    1.141   -0.070   Cg    58      3jU   0.284000
  1143   H4    1.800    1.017    0.520   H1    58      3jU   0.000000
  1144   C5    0.743   -0.163   -1.019   Cg    58      3jU   0.100000
  1145   H5    1.682   -0.713   -1.020   H1    58      3jU   0.000000
  1146   C6    0.312    0.124   -2.466   Cg    58      3jU   0.349000
  1147  H61    1.017    0.793   -2.959   H1    58      3jU   0.000000
  1148  H62   -0.676    0.581   -2.483   H1    58      3jU   0.000000
  1149   O6    0.271   -1.125   -3.173   Oh    58      3jU  -0.684000
  1150  H6O   -0.164   -1.766   -2.603   Ho    58      3jU   0.411000
  1151   O5   -0.377   -1.046   -0.326   Os    58      3jU  -0.389000
  1152   O4    0.999    2.371   -0.814   Oh    58      3jU  -0.657000
  1153  H4O    0.191    2.871   -0.622   Ho    58      3jU   0.410000
  1154   O3   -1.346    2.158    0.524   Os    58      3jU  -0.449000
  1155   C2    0.948   -1.251   -0.118   Cg    59      3pD   0.324000
  1156   C1    0.438   -2.542    0.533   Cg    59      3pD   0.286000
  1157  H11    0.264   -3.309   -0.224   H1    59      3pD   0.000000
  1158  H12    1.168   -2.923    1.248   H1    59      3pD   0.000000
  1159   O1   -0.795   -2.277    1.216   Oh    59      3pD  -0.691000
  1160  H1O   -1.110   -3.082    1.633   Ho    59      3pD   0.419000
  1161   O5   -0.141   -0.668   -1.101   Os    59      3pD  -0.453000
  1162   C5   -0.293    0.899   -0.977   Cg    59      3pD   0.194000
  1163   H5   -0.049    1.361   -1.936   H1    59      3pD   0.000000
  1164   C6   -1.742    1.219   -0.609   Cg    59      3pD   0.291000
  1165  H61   -1.863    2.290   -0.447   H1    59      3pD   0.000000
  1166  H62   -2.034    0.693    0.301   H1    59      3pD   0.000000
  1167   O6   -2.589    0.810   -1.691   Oh    59      3pD  -0.695000
  1168  H6O   -2.331    1.273   -2.491   Ho    59      3pD   0.411000
  1169   C4    0.763    1.350    0.175   Cg    59      3pD   0.282000
  1170   H4    0.331    2.045    0.896   H1    59      3pD   0.000000
  1171   O4    1.852    1.984   -0.516   Oh    59      3pD  -0.683000
  1172  H4O    2.526    2.241    0.118   Ho    59      3pD   0.421000
  1173   C3    1.292   -0.015    0.891   Cg    59      3pD   0.334000
  1174   H3    0.693   -0.145    1.792   H1    59      3pD   0.000000
  1175   O3    2.671    0.046    1.305   Os    59      3pD  -0.440000
  1176   C2   -1.003   -0.913    0.623   Cg    60      3pU   0.288000
  1177   C1   -0.754   -2.429    0.748   Cg    60      3pU   0.365000
  1178  H11    0.314   -2.636    0.684   H1    60      3pU   0.000000
  1179  H12   -1.116   -2.801    1.707   H1    60      3pU   0.000000
  1180   O1   -1.422   -3.130   -0.314   Oh    60      3pU  -0.687000
  1181  H1O   -1.268   -4.073   -0.222   Ho    60      3pU   0.418000
  1182   C3   -0.182    0.061    1.642   Cg    60      3pU   0.334000
  1183   H3   -0.879    0.731    2.148   H1    60      3pU   0.000000
  1184   C4    0.812    0.993    0.746   Cg    60      3pU   0.192000
  1185   H4    0.749    2.040    1.049   H1    60      3pU   0.000000
  1186   C5    0.401    0.783   -0.810   Cg    60      3pU   0.369000
  1187   H5    1.275    0.555   -1.424   H1    60      3pU   0.000000
  1188   C6   -0.333    1.989   -1.397   Cg    60      3pU   0.215000
  1189  H61    0.299    2.876   -1.351   H1    60      3pU   0.000000
  1190  H62   -1.252    2.187   -0.844   H1    60      3pU   0.000000
  1191   O6   -0.651    1.710   -2.766   Oh    60      3pU  -0.678000
  1192  H6O    0.157    1.527   -3.252   Ho    60      3pU   0.421000
  1193   O5   -0.579   -0.451   -0.823   Os    60      3pU  -0.480000
  1194   O4    2.175    0.548    0.863   Oh    60      3pU  -0.711000
  1195  H4O    2.742    1.111    0.331   Ho    60      3pU   0.438000
  1196   O3    0.516   -0.680    2.662   Os    60      3pU  -0.484000
  1197   C1    0.812   -1.059    1.643   Cg    61      3rD   0.445000
  1198   H1    0.301   -1.349    2.562   H2    61      3rD   0.000000
  1199   O4    0.070   -1.602    0.381   Os    61      3rD  -0.513000
  1200   C4   -0.046   -0.533   -0.790   Cg    61      3rD   0.327000
  1201   H4    0.530   -0.881   -1.649   H1    61      3rD   0.000000
  1202   C5   -1.516   -0.334   -1.203   Cg    61      3rD   0.195000
  1203  H51   -1.593    0.494   -1.908   H1    61      3rD   0.000000
  1204  H52   -2.117   -0.089   -0.327   H1    61      3rD   0.000000
  1205   O5   -2.055   -1.517   -1.824   Oh    61      3rD  -0.667000
  1206  H5O   -1.597   -1.713   -2.646   Ho    61      3rD   0.408000
  1207   C3    0.600    0.828   -0.178   Cg    61      3rD   0.275000
  1208   H3   -0.048    1.690   -0.332   H1    61      3rD   0.000000
  1209   C2    0.849    0.565    1.423   Cg    61      3rD   0.318000
  1210   H2   -0.021    0.964    1.943   H1    61      3rD   0.000000
  1211   O2    2.019    1.261    1.954   Oh    61      3rD  -0.709000
  1212  H2O    1.945    2.207    1.797   Ho    61      3rD   0.416000
  1213   O3    1.867    1.067   -0.846   Os    61      3rD  -0.495000
  1214   C1    0.431   -0.732    1.842   Cg    62      3rU   0.378000
  1215   H1    1.329   -1.042    2.379   H1    62      3rU   0.000000
  1216   C2    0.371    0.877    1.567   Cg    62      3rU   0.293000
  1217   H2   -0.358    1.370    2.212   H1    62      3rU   0.000000
  1218   O2    1.690    1.454    1.823   Oh    62      3rU  -0.670000
  1219  H2O    1.875    1.430    2.768   Ho    62      3rU   0.420000
  1220   C3   -0.043    1.061   -0.012   Cg    62      3rU   0.289000
  1221   H3   -1.095    1.348   -0.055   H1    62      3rU   0.000000
  1222   C4    0.151   -0.368   -0.742   Cg    62      3rU   0.102000
  1223   H4    1.058   -0.348   -1.348   H1    62      3rU   0.000000
  1224   C5   -1.050   -0.748   -1.617   Cg    62      3rU   0.338000
  1225  H51   -1.936   -0.901   -1.001   H1    62      3rU   0.000000
  1226  H52   -1.259    0.050   -2.330   H1    62      3rU   0.000000
  1227   O5   -0.763   -1.952   -2.344   Oh    62      3rU  -0.692000
  1228  H5O   -1.507   -2.174   -2.906   Ho    62      3rU   0.415000
  1229   O4    0.370   -1.405    0.440   Os    62      3rU  -0.424000
  1230   O3    0.736    2.078   -0.675   Os    62      3rU  -0.449000
  1231   C1   -0.862   -1.126   -1.278   Cg    63      3xD   0.428000
  1232   H1   -0.425   -1.347   -2.251   H1    63      3xD   0.000000
  1233   O4    0.096   -1.539   -0.117   Os    63      3xD  -0.507000
  1234   C4    0.270   -0.403    0.986   Cg    63      3xD   0.237000
  1235   H4   -0.125   -0.770    1.934   H1    63      3xD   0.000000
  1236   C5    1.772   -0.098    1.168   Cg    63      3xD   0.280000
  1237  H51    1.919    0.825    1.729   H1    63      3xD   0.000000
  1238  H52    2.235   -0.909    1.731   H1    63      3xD   0.000000
  1239   O5    2.429   -0.003   -0.111   Oh    63      3xD  -0.678000
  1240  H5O    2.235   -0.806   -0.603   Ho    63      3xD   0.422000
  1241   C3   -0.672    0.820    0.476   Cg    63      3xD   0.302000
  1242   H3   -1.551    0.852    1.122   H1    63      3xD   0.000000
  1243   C2   -1.152    0.467   -1.045   Cg    63      3xD   0.248000
  1244   H2   -0.529    1.024   -1.747   H1    63      3xD   0.000000
  1245   O2   -2.538    0.852   -1.264   Oh    63      3xD  -0.657000
  1246  H2O   -3.073    0.047   -1.261   Ho    63      3xD   0.407000
  1247   O3   -0.027    2.114    0.531   Os    63      3xD  -0.482000
  1248   C1   -1.380   -0.646    1.264   Cg    64      3xU   0.388000
  1249   H1   -1.258   -1.277    2.144   H2    64      3xU   0.000000
  1250   C2   -0.588    0.771    1.440   Cg    64      3xU   0.382000
  1251   H2   -1.258    1.595    1.188   H1    64      3xU   0.000000
  1252   O2   -0.109    0.969    2.798   Oh    64      3xU  -0.731000
  1253  H2O   -0.863    1.098    3.383   Ho    64      3xU   0.420000
  1254   C3    0.670    0.757    0.394   Cg    64      3xU   0.224000
  1255   H3    1.602    0.625    0.946   H1    64      3xU   0.000000
  1256   C4    0.482   -0.527   -0.586   Cg    64      3xU   0.142000
  1257   H4    1.380   -1.145   -0.527   H1    64      3xU   0.000000
  1258   C5    0.195   -0.204   -2.065   Cg    64      3xU   0.285000
  1259  H51    1.020    0.368   -2.488   H1    64      3xU   0.000000
  1260  H52   -0.717    0.389   -2.154   H1    64      3xU   0.000000
  1261   O5    0.042   -1.421   -2.817   Oh    64      3xU  -0.635000
  1262  H5O    0.764   -2.017   -2.613   Ho    64      3xU   0.396000
  1263   O4   -0.731   -1.340    0.031   Os    64      3xU  -0.427000
  1264   O3    0.749    2.005   -0.340   Os    64      3xU  -0.444000
  1265   C2    0.944   -0.736    0.966   Cg    65      4bD   0.241000
  1266   C1    0.231   -1.136    2.278   Cg    65      4bD   0.313000
  1267  H11    0.072   -2.215    2.300   H1    65      4bD   0.000000
  1268  H12    0.842   -0.866    3.139   H1    65      4bD   0.000000
  1269   O1   -1.047   -0.475    2.391   Oh    65      4bD  -0.668000
  1270  H1O   -1.571   -0.918    3.063   Ho    65      4bD   0.414000
  1271   O5    0.202   -1.307   -0.288   Os    65      4bD  -0.452000
  1272   C5    0.060   -0.258   -1.471   Cg    65      4bD   0.271000
  1273   H5    0.633   -0.612   -2.330   H1    65      4bD   0.000000
  1274   C6   -1.425   -0.124   -1.866   Cg    65      4bD   0.281000
  1275  H61   -1.561    0.718   -2.545   H1    65      4bD   0.000000
  1276  H62   -2.033    0.053   -0.977   H1    65      4bD   0.000000
  1277   O6   -1.890   -1.317   -2.531   Oh    65      4bD  -0.679000
  1278  H6O   -1.482   -1.394   -3.396   Ho    65      4bD   0.411000
  1279   C4    0.756    1.099   -0.906   Cg    65      4bD   0.225000
  1280   H4    1.716    1.209   -1.412   H1    65      4bD   0.000000
  1281   C3    1.030    0.879    0.692   Cg    65      4bD   0.440000
  1282   H3    0.220    1.365    1.235   H1    65      4bD   0.000000
  1283   O3    2.267    1.526    1.094   Oh    65      4bD  -0.732000
  1284  H3O    2.068    2.214    1.732   Ho    65      4bD   0.404000
  1285   O4   -0.031    2.297   -1.166   Os    65      4bD  -0.469000
  1286   C2   -1.000   -0.328    0.838   Cg    66      4bU   0.247000
  1287   C1   -0.641   -1.146    2.108   Cg    66      4bU   0.299000
  1288  H11    0.442   -1.151    2.245   H1    66      4bU   0.000000
  1289  H12   -1.091   -0.693    2.992   H1    66      4bU   0.000000
  1290   O1   -1.096   -2.514    2.002   Oh    66      4bU  -0.627000
  1291  H1O   -0.760   -3.020    2.745   Ho    66      4bU   0.382000
  1292   C3   -0.418    1.200    0.834   Cg    66      4bU   0.382000
  1293   H3   -1.213    1.882    0.530   H1    66      4bU   0.000000
  1294   O3    0.074    1.641    2.131   Oh    66      4bU  -0.742000
  1295  H3O   -0.681    1.882    2.678   Ho    66      4bU   0.426000
  1296   C4    0.769    1.265   -0.292   Cg    66      4bU   0.283000
  1297   H4    1.736    1.244    0.213   H1    66      4bU   0.000000
  1298   C5    0.659   -0.079   -1.198   Cg    66      4bU   0.210000
  1299   H5    1.634   -0.567   -1.227   H1    66      4bU   0.000000
  1300   C6    0.164    0.147   -2.639   Cg    66      4bU   0.332000
  1301  H61    0.842    0.820   -3.163   H1    66      4bU   0.000000
  1302  H62   -0.829    0.598   -2.632   H1    66      4bU   0.000000
  1303   O6    0.111   -1.101   -3.361   Oh    66      4bU  -0.701000
  1304  H6O    0.956   -1.551   -3.304   Ho    66      4bU   0.409000
  1305   O5   -0.354   -1.010   -0.418   Os    66      4bU  -0.385000
  1306   O4    0.698    2.482   -1.083   Os    66      4bU  -0.515000
  1307   C2    1.062   -0.721    1.006   Cg    67      4cD   0.284000
  1308   C1    0.407   -1.251    2.314   Cg    67      4cD   0.370000
  1309  H11    0.469   -2.339    2.353   H1    67      4cD   0.000000
  1310  H12    0.939   -0.851    3.179   H1    67      4cD   0.000000
  1311   O1   -0.976   -0.857    2.405   Oh    67      4cD  -0.688000
  1312  H1O   -1.002    0.096    2.224   Ho    67      4cD   0.414000
  1313   O5    0.420   -1.355   -0.272   Os    67      4cD  -0.498000
  1314   C5    0.160   -0.306   -1.430   Cg    67      4cD   0.309000
  1315   H5    0.736   -0.592   -2.313   H1    67      4cD   0.000000
  1316   C6   -1.337   -0.248   -1.778   Cg    67      4cD   0.265000
  1317  H61   -1.544    0.633   -2.385   H1    67      4cD   0.000000
  1318  H62   -1.929   -0.177   -0.864   H1    67      4cD   0.000000
  1319   O6   -1.747   -1.416   -2.518   Oh    67      4cD  -0.664000
  1320  H6O   -1.344   -1.427   -3.389   Ho    67      4cD   0.412000
  1321   C4    0.689    1.108   -0.839   Cg    67      4cD   0.332000
  1322   H4   -0.053    1.896   -0.980   H1    67      4cD   0.000000
  1323   C3    1.031    0.896    0.748   Cg    67      4cD   0.282000
  1324   H3    1.986    1.353    1.011   H1    67      4cD   0.000000
  1325   O3   -0.012    1.552    1.531   Oh    67      4cD  -0.716000
  1326  H3O    0.141    2.505    1.534   Ho    67      4cD   0.432000
  1327   O4    1.902    1.501   -1.535   Os    67      4cD  -0.534000
  1328   C2   -0.898   -0.838    0.614   Cg    68      4cU   0.239000
  1329   C1   -0.480   -2.305    0.803   Cg    68      4cU   0.287000
  1330  H11    0.599   -2.404    0.678   H1    68      4cU   0.000000
  1331  H12   -0.738   -2.652    1.805   H1    68      4cU   0.000000
  1332   O1   -1.132   -3.138   -0.170   Oh    68      4cU  -0.624000
  1333  H1O   -0.864   -4.051   -0.042   Ho    68      4cU   0.401000
  1334   C3    0.010    0.166    1.532   Cg    68      4cU   0.333000
  1335   H3    0.536   -0.370    2.323   H1    68      4cU   0.000000
  1336   O3   -0.794    1.201    2.127   Oh    68      4cU  -0.691000
  1337  H3O   -1.452    0.803    2.702   Ho    68      4cU   0.410000
  1338   C4    1.025    0.942    0.531   Cg    68      4cU   0.293000
  1339   H4    1.109    2.008    0.754   H1    68      4cU   0.000000
  1340   C5    0.529    0.672   -0.990   Cg    68      4cU   0.310000
  1341   H5    1.344    0.287   -1.605   H1    68      4cU   0.000000
  1342   C6   -0.069    1.917   -1.645   Cg    68      4cU   0.272000
  1343  H61    0.670    2.718   -1.680   H1    68      4cU   0.000000
  1344  H62   -0.937    2.268   -1.085   H1    68      4cU   0.000000
  1345   O6   -0.466    1.586   -2.982   Oh    68      4cU  -0.652000
  1346  H6O    0.297    1.281   -3.477   Ho    68      4cU   0.397000
  1347   O5   -0.602   -0.422   -0.876   Os    68      4cU  -0.449000
  1348   O4    2.314    0.333    0.684   Os    68      4cU  -0.526000
  1349   C2    1.057   -0.790    1.001   Cg    69      4jD   0.192000
  1350   C1    0.395   -1.341    2.295   Cg    69      4jD   0.389000
  1351  H11    0.447   -2.430    2.311   H1    69      4jD   0.000000
  1352  H12    0.924   -0.962    3.171   H1    69      4jD   0.000000
  1353   O1   -0.984   -0.942    2.381   Oh    69      4jD  -0.654000
  1354  H1O   -0.996    0.015    2.232   Ho    69      4jD   0.380000
  1355   O5    0.357   -1.328   -0.293   Os    69      4jD  -0.410000
  1356   C5    0.178   -0.222   -1.414   Cg    69      4jD   0.190000
  1357   H5    0.731   -0.521   -2.306   H1    69      4jD   0.000000
  1358   C6   -1.318   -0.079   -1.759   Cg    69      4jD   0.340000
  1359  H61   -1.476    0.792   -2.396   H1    69      4jD   0.000000
  1360  H62   -1.904    0.052   -0.849   H1    69      4jD   0.000000
  1361   O6   -1.787   -1.243   -2.467   Oh    69      4jD  -0.725000
  1362  H6O   -1.279   -1.371   -3.269   Ho    69      4jD   0.425000
  1363   C4    0.867    1.110   -0.789   Cg    69      4jD   0.233000
  1364   H4    1.850    1.208   -1.250   H1    69      4jD   0.000000
  1365   C3    1.102    0.835    0.813   Cg    69      4jD   0.393000
  1366   H3    2.045    1.267    1.151   H1    69      4jD   0.000000
  1367   O3    0.007    1.459    1.539   Oh    69      4jD  -0.748000
  1368  H3O   -0.343    2.153    0.960   Ho    69      4jD   0.446000
  1369   O4    0.127    2.336   -1.062   Os    69      4jD  -0.451000
  1370   C2   -0.935   -0.289    0.853   Cg    70      4jU   0.351000
  1371   C1   -0.634   -1.088    2.152   Cg    70      4jU   0.333000
  1372  H11    0.443   -1.136    2.310   H1    70      4jU   0.000000
  1373  H12   -1.078   -0.587    3.012   H1    70      4jU   0.000000
  1374   O1   -1.152   -2.439    2.079   Oh    70      4jU  -0.697000
  1375  H1O   -0.868   -2.936    2.852   Ho    70      4jU   0.415000
  1376   C3   -0.267    1.210    0.912   Cg    70      4jU   0.223000
  1377   H3    0.063    1.462    1.920   H1    70      4jU   0.000000
  1378   O3   -1.232    2.213    0.471   Oh    70      4jU  -0.671000
  1379  H3O   -2.096    1.772    0.431   Ho    70      4jU   0.416000
  1380   C4    1.005    1.196   -0.123   Cg    70      4jU   0.284000
  1381   H4    1.914    1.072    0.467   H1    70      4jU   0.000000
  1382   C5    0.857   -0.108   -1.071   Cg    70      4jU   0.100000
  1383   H5    1.797   -0.658   -1.073   H1    70      4jU   0.000000
  1384   C6    0.426    0.179   -2.519   Cg    70      4jU   0.349000
  1385  H61    1.132    0.847   -3.012   H1    70      4jU   0.000000
  1386  H62   -0.562    0.636   -2.536   H1    70      4jU   0.000000
  1387   O6    0.386   -1.070   -3.225   Oh    70      4jU  -0.684000
  1388  H6O   -0.049   -1.712   -2.656   Ho    70      4jU   0.411000
  1389   O5   -0.263   -0.991   -0.379   Os    70      4jU  -0.389000
  1390   O4    1.113    2.426   -0.867   Os    70      4jU  -0.441000
  1391   C2    0.935   -1.182   -0.203   Cg    71      4pD   0.324000
  1392   C1    0.425   -2.473    0.447   Cg    71      4pD   0.286000
  1393  H11    0.251   -3.240   -0.309   H1    71      4pD   0.000000
  1394  H12    1.155   -2.853    1.163   H1    71      4pD   0.000000
  1395   O1   -0.807   -2.207    1.131   Oh    71      4pD  -0.691000
  1396  H1O   -1.122   -3.013    1.548   Ho    71      4pD   0.419000
  1397   O5   -0.153   -0.599   -1.186   Os    71      4pD  -0.453000
  1398   C5   -0.305    0.969   -1.062   Cg    71      4pD   0.194000
  1399   H5   -0.062    1.431   -2.021   H1    71      4pD   0.000000
  1400   C6   -1.755    1.289   -0.695   Cg    71      4pD   0.291000
  1401  H61   -1.876    2.360   -0.532   H1    71      4pD   0.000000
  1402  H62   -2.047    0.763    0.215   H1    71      4pD   0.000000
  1403   O6   -2.601    0.879   -1.776   Oh    71      4pD  -0.695000
  1404  H6O   -2.344    1.342   -2.576   Ho    71      4pD   0.411000
  1405   C4    0.751    1.419    0.090   Cg    71      4pD   0.282000
  1406   H4    0.318    2.114    0.811   H1    71      4pD   0.000000
  1407   C3    1.279    0.054    0.806   Cg    71      4pD   0.334000
  1408   H3    0.680   -0.076    1.707   H1    71      4pD   0.000000
  1409   O3    2.658    0.115    1.220   Oh    71      4pD  -0.661000
  1410  H3O    2.780    0.853    1.821   Ho    71      4pD   0.415000
  1411   O4    1.839    2.054   -0.601   Os    71      4pD  -0.456000
  1412   C2   -0.920   -0.856    0.486   Cg    72      4pU   0.288000
  1413   C1   -0.672   -2.372    0.610   Cg    72      4pU   0.365000
  1414  H11    0.397   -2.580    0.546   H1    72      4pU   0.000000
  1415  H12   -1.034   -2.744    1.570   H1    72      4pU   0.000000
  1416   O1   -1.340   -3.073   -0.451   Oh    72      4pU  -0.687000
  1417  H1O   -1.186   -4.016   -0.360   Ho    72      4pU   0.418000
  1418   C3   -0.099    0.118    1.505   Cg    72      4pU   0.334000
  1419   H3   -0.797    0.787    2.010   H1    72      4pU   0.000000
  1420   O3    0.598   -0.623    2.525   Oh    72      4pU  -0.714000
  1421  H3O    1.092   -0.016    3.080   Ho    72      4pU   0.424000
  1422   C4    0.895    1.050    0.609   Cg    72      4pU   0.192000
  1423   H4    0.831    2.096    0.911   H1    72      4pU   0.000000
  1424   C5    0.483    0.839   -0.947   Cg    72      4pU   0.369000
  1425   H5    1.357    0.612   -1.561   H1    72      4pU   0.000000
  1426   C6   -0.250    2.045   -1.534   Cg    72      4pU   0.215000
  1427  H61    0.382    2.932   -1.488   H1    72      4pU   0.000000
  1428  H62   -1.170    2.243   -0.982   H1    72      4pU   0.000000
  1429   O6   -0.568    1.766   -2.904   Oh    72      4pU  -0.678000
  1430  H6O    0.239    1.583   -3.389   Ho    72      4pU   0.421000
  1431   O5   -0.497   -0.395   -0.960   Os    72      4pU  -0.480000
  1432   O4    2.257    0.604    0.725   Os    72      4pU  -0.467000
  1433   C2    0.848   -0.949    0.854   Cg    73      6bD   0.241000
  1434   C1    0.135   -1.349    2.166   Cg    73      6bD   0.313000
  1435  H11   -0.023   -2.428    2.188   H1    73      6bD   0.000000
  1436  H12    0.747   -1.079    3.027   H1    73      6bD   0.000000
  1437   O1   -1.142   -0.688    2.279   Oh    73      6bD  -0.668000
  1438  H1O   -1.666   -1.131    2.951   Ho    73      6bD   0.414000
  1439   O5    0.106   -1.520   -0.400   Os    73      6bD  -0.452000
  1440   C5   -0.035   -0.471   -1.583   Cg    73      6bD   0.271000
  1441   H5    0.538   -0.825   -2.442   H1    73      6bD   0.000000
  1442   C4    0.660    0.886   -1.018   Cg    73      6bD   0.225000
  1443   H4    1.621    0.996   -1.524   H1    73      6bD   0.000000
  1444   O4   -0.126    2.084   -1.278   Oh    73      6bD  -0.710000
  1445  H4O    0.425    2.866   -1.155   Ho    73      6bD   0.435000
  1446   C3    0.935    0.666    0.580   Cg    73      6bD   0.440000
  1447   H3    0.124    1.152    1.123   H1    73      6bD   0.000000
  1448   O3    2.172    1.313    0.982   Oh    73      6bD  -0.732000
  1449  H3O    1.973    2.001    1.620   Ho    73      6bD   0.404000
  1450   C6   -1.521   -0.337   -1.978   Cg    73      6bD   0.281000
  1451  H61   -1.656    0.505   -2.657   H1    73      6bD   0.000000
  1452  H62   -2.128   -0.160   -1.089   H1    73      6bD   0.000000
  1453   O6   -1.986   -1.530   -2.643   Os    73      6bD  -0.462000
  1454   C2   -0.997   -0.556    0.706   Cg    74      6bU   0.247000
  1455   C1   -0.638   -1.375    1.975   Cg    74      6bU   0.299000
  1456  H11    0.444   -1.379    2.113   H1    74      6bU   0.000000
  1457  H12   -1.089   -0.921    2.860   H1    74      6bU   0.000000
  1458   O1   -1.093   -2.742    1.869   Oh    74      6bU  -0.627000
  1459  H1O   -0.757   -3.248    2.613   Ho    74      6bU   0.382000
  1460   C3   -0.415    0.972    0.702   Cg    74      6bU   0.382000
  1461   H3   -1.210    1.654    0.398   H1    74      6bU   0.000000
  1462   O3    0.076    1.413    1.999   Oh    74      6bU  -0.742000
  1463  H3O   -0.679    1.654    2.545   Ho    74      6bU   0.426000
  1464   C4    0.771    1.037   -0.424   Cg    74      6bU   0.283000
  1465   H4    1.738    1.015    0.080   H1    74      6bU   0.000000
  1466   O4    0.700    2.254   -1.215   Oh    74      6bU  -0.755000
  1467  H4O    0.903    3.012   -0.655   Ho    74      6bU   0.434000
  1468   C5    0.661   -0.307   -1.330   Cg    74      6bU   0.210000
  1469   H5    1.637   -0.795   -1.359   H1    74      6bU   0.000000
  1470   O5   -0.352   -1.238   -0.550   Os    74      6bU  -0.385000
  1471   C6    0.166   -0.081   -2.772   Cg    74      6bU   0.332000
  1472  H61    0.845    0.592   -3.295   H1    74      6bU   0.000000
  1473  H62   -0.826    0.369   -2.764   H1    74      6bU   0.000000
  1474   O6    0.114   -1.329   -3.493   Os    74      6bU  -0.486000
  1475   C2    0.873   -0.832    0.907   Cg    75      6cD   0.284000
  1476   C1    0.218   -1.361    2.215   Cg    75      6cD   0.370000
  1477  H11    0.280   -2.450    2.254   H1    75      6cD   0.000000
  1478  H12    0.750   -0.961    3.080   H1    75      6cD   0.000000
  1479   O1   -1.165   -0.968    2.306   Oh    75      6cD  -0.688000
  1480  H1O   -1.191   -0.015    2.125   Ho    75      6cD   0.414000
  1481   O5    0.231   -1.466   -0.371   Os    75      6cD  -0.498000
  1482   C5   -0.029   -0.417   -1.529   Cg    75      6cD   0.309000
  1483   H5    0.547   -0.703   -2.412   H1    75      6cD   0.000000
  1484   C4    0.500    0.997   -0.938   Cg    75      6cD   0.332000
  1485   H4   -0.242    1.785   -1.079   H1    75      6cD   0.000000
  1486   O4    1.713    1.391   -1.633   Oh    75      6cD  -0.784000
  1487  H4O    2.437    0.791   -1.412   Ho    75      6cD   0.444000
  1488   C3    0.842    0.785    0.650   Cg    75      6cD   0.282000
  1489   H3    1.797    1.242    0.912   H1    75      6cD   0.000000
  1490   O3   -0.201    1.442    1.432   Oh    75      6cD  -0.716000
  1491  H3O   -0.048    2.394    1.435   Ho    75      6cD   0.432000
  1492   C6   -1.526   -0.359   -1.877   Cg    75      6cD   0.265000
  1493  H61   -1.733    0.522   -2.484   H1    75      6cD   0.000000
  1494  H62   -2.118   -0.287   -0.963   H1    75      6cD   0.000000
  1495   O6   -1.936   -1.527   -2.617   Os    75      6cD  -0.446000
  1496   C2   -1.024   -0.813    0.444   Cg    76      6cU   0.239000
  1497   C1   -0.606   -2.280    0.633   Cg    76      6cU   0.287000
  1498  H11    0.473   -2.379    0.508   H1    76      6cU   0.000000
  1499  H12   -0.864   -2.627    1.635   H1    76      6cU   0.000000
  1500   O1   -1.258   -3.113   -0.340   Oh    76      6cU  -0.624000
  1501  H1O   -0.989   -4.025   -0.212   Ho    76      6cU   0.401000
  1502   C3   -0.116    0.191    1.363   Cg    76      6cU   0.333000
  1503   H3    0.411   -0.345    2.154   H1    76      6cU   0.000000
  1504   O3   -0.920    1.226    1.957   Oh    76      6cU  -0.691000
  1505  H3O   -1.578    0.828    2.532   Ho    76      6cU   0.410000
  1506   C4    0.899    0.967    0.361   Cg    76      6cU   0.293000
  1507   H4    0.983    2.033    0.584   H1    76      6cU   0.000000
  1508   O4    2.188    0.358    0.514   Oh    76      6cU  -0.763000
  1509  H4O    2.813    0.776   -0.083   Ho    76      6cU   0.431000
  1510   C5    0.403    0.697   -1.159   Cg    76      6cU   0.310000
  1511   H5    1.219    0.312   -1.775   H1    76      6cU   0.000000
  1512   O5   -0.727   -0.397   -1.046   Os    76      6cU  -0.449000
  1513   C6   -0.195    1.943   -1.815   Cg    76      6cU   0.272000
  1514  H61    0.544    2.743   -1.850   H1    76      6cU   0.000000
  1515  H62   -1.063    2.293   -1.255   H1    76      6cU   0.000000
  1516   O6   -0.592    1.611   -3.151   Os    76      6cU  -0.449000
  1517   C2    0.962   -1.000    0.910   Cg    77      6jD   0.192000
  1518   C1    0.299   -1.550    2.204   Cg    77      6jD   0.389000
  1519  H11    0.352   -2.640    2.220   H1    77      6jD   0.000000
  1520  H12    0.828   -1.172    3.079   H1    77      6jD   0.000000
  1521   O1   -1.080   -1.152    2.290   Oh    77      6jD  -0.654000
  1522  H1O   -1.091   -0.194    2.141   Ho    77      6jD   0.380000
  1523   O5    0.261   -1.537   -0.384   Os    77      6jD  -0.410000
  1524   C5    0.082   -0.432   -1.506   Cg    77      6jD   0.190000
  1525   H5    0.635   -0.731   -2.397   H1    77      6jD   0.000000
  1526   C4    0.772    0.901   -0.880   Cg    77      6jD   0.233000
  1527   H4    1.755    0.999   -1.341   H1    77      6jD   0.000000
  1528   O4    0.031    2.127   -1.153   Oh    77      6jD  -0.671000
  1529  H4O    0.635    2.821   -1.445   Ho    77      6jD   0.414000
  1530   C3    1.006    0.626    0.721   Cg    77      6jD   0.393000
  1531   H3    1.950    1.057    1.059   H1    77      6jD   0.000000
  1532   O3   -0.089    1.249    1.448   Oh    77      6jD  -0.748000
  1533  H3O   -0.439    1.943    0.869   Ho    77      6jD   0.446000
  1534   C6   -1.414   -0.288   -1.850   Cg    77      6jD   0.340000
  1535  H61   -1.571    0.582   -2.487   H1    77      6jD   0.000000
  1536  H62   -2.000   -0.158   -0.940   H1    77      6jD   0.000000
  1537   O6   -1.883   -1.452   -2.558   Os    77      6jD  -0.494000
  1538   C2   -0.952   -0.510    0.759   Cg    78      6jU   0.351000
  1539   C1   -0.651   -1.309    2.058   Cg    78      6jU   0.333000
  1540  H11    0.426   -1.357    2.216   H1    78      6jU   0.000000
  1541  H12   -1.095   -0.807    2.917   H1    78      6jU   0.000000
  1542   O1   -1.169   -2.660    1.985   Oh    78      6jU  -0.697000
  1543  H1O   -0.885   -3.156    2.757   Ho    78      6jU   0.415000
  1544   C3   -0.283    0.990    0.818   Cg    78      6jU   0.223000
  1545   H3    0.046    1.241    1.826   H1    78      6jU   0.000000
  1546   O3   -1.249    1.992    0.377   Oh    78      6jU  -0.671000
  1547  H3O   -2.113    1.551    0.337   Ho    78      6jU   0.416000
  1548   C4    0.988    0.975   -0.217   Cg    78      6jU   0.284000
  1549   H4    1.897    0.851    0.373   H1    78      6jU   0.000000
  1550   O4    1.096    2.205   -0.961   Oh    78      6jU  -0.657000
  1551  H4O    0.289    2.705   -0.769   Ho    78      6jU   0.410000
  1552   C5    0.840   -0.329   -1.166   Cg    78      6jU   0.100000
  1553   H5    1.780   -0.879   -1.167   H1    78      6jU   0.000000
  1554   O5   -0.279   -1.212   -0.473   Os    78      6jU  -0.389000
  1555   C6    0.410   -0.042   -2.613   Cg    78      6jU   0.349000
  1556  H61    1.115    0.627   -3.106   H1    78      6jU   0.000000
  1557  H62   -0.578    0.415   -2.630   H1    78      6jU   0.000000
  1558   O6    0.369   -1.290   -3.320   Os    78      6jU  -0.467000
  1559   C2    0.704   -1.228   -0.327   Cg    79      6pD   0.324000
  1560   C1    0.194   -2.519    0.323   Cg    79      6pD   0.286000
  1561  H11    0.020   -3.286   -0.433   H1    79      6pD   0.000000
  1562  H12    0.924   -2.899    1.039   H1    79      6pD   0.000000
  1563   O1   -1.039   -2.253    1.007   Oh    79      6pD  -0.691000
  1564  H1O   -1.354   -3.059    1.424   Ho    79      6pD   0.419000
  1565   O5   -0.385   -0.645   -1.310   Os    79      6pD  -0.453000
  1566   C5   -0.537    0.923   -1.186   Cg    79      6pD   0.194000
  1567   H5   -0.293    1.385   -2.145   H1    79      6pD   0.000000
  1568   C4    0.519    1.373   -0.034   Cg    79      6pD   0.282000
  1569   H4    0.087    2.068    0.687   H1    79      6pD   0.000000
  1570   O4    1.608    2.007   -0.725   Oh    79      6pD  -0.683000
  1571  H4O    2.282    2.264   -0.092   Ho    79      6pD   0.421000
  1572   C3    1.048    0.008    0.681   Cg    79      6pD   0.334000
  1573   H3    0.449   -0.122    1.583   H1    79      6pD   0.000000
  1574   O3    2.427    0.069    1.096   Oh    79      6pD  -0.661000
  1575  H3O    2.549    0.807    1.697   Ho    79      6pD   0.415000
  1576   C6   -1.986    1.243   -0.819   Cg    79      6pD   0.291000
  1577  H61   -2.107    2.314   -0.656   H1    79      6pD   0.000000
  1578  H62   -2.278    0.716    0.091   H1    79      6pD   0.000000
  1579   O6   -2.833    0.833   -1.900   Os    79      6pD  -0.478000
  1580   C2   -1.043   -0.837    0.315   Cg    80      6pU   0.288000
  1581   C1   -0.795   -2.352    0.439   Cg    80      6pU   0.365000
  1582  H11    0.274   -2.560    0.376   H1    80      6pU   0.000000
  1583  H12   -1.157   -2.725    1.399   H1    80      6pU   0.000000
  1584   O1   -1.463   -3.054   -0.622   Oh    80      6pU  -0.687000
  1585  H1O   -1.309   -3.997   -0.530   Ho    80      6pU   0.418000
  1586   C3   -0.223    0.137    1.334   Cg    80      6pU   0.334000
  1587   H3   -0.920    0.807    1.840   H1    80      6pU   0.000000
  1588   O3    0.475   -0.603    2.354   Oh    80      6pU  -0.714000
  1589  H3O    0.969    0.004    2.910   Ho    80      6pU   0.424000
  1590   C4    0.772    1.070    0.438   Cg    80      6pU   0.192000
  1591   H4    0.708    2.116    0.741   H1    80      6pU   0.000000
  1592   O4    2.134    0.624    0.555   Oh    80      6pU  -0.711000
  1593  H4O    2.701    1.187    0.023   Ho    80      6pU   0.438000
  1594   C5    0.360    0.859   -1.118   Cg    80      6pU   0.369000
  1595   H5    1.234    0.632   -1.732   H1    80      6pU   0.000000
  1596   O5   -0.620   -0.375   -1.131   Os    80      6pU  -0.480000
  1597   C6   -0.373    2.065   -1.705   Cg    80      6pU   0.215000
  1598  H61    0.259    2.952   -1.659   H1    80      6pU   0.000000
  1599  H62   -1.293    2.263   -1.152   H1    80      6pU   0.000000
  1600   O6   -0.691    1.786   -3.074   Os    80      6pU  -0.451000
  1601   C2    0.974   -0.693    0.878   Cg    81      QbD   0.241000
  1602   C1    0.262   -1.093    2.190   Cg    81      QbD   0.313000
  1603  H11    0.103   -2.172    2.212   H1    81      QbD   0.000000
  1604  H12    0.873   -0.823    3.051   H1    81      QbD   0.000000
  1605   O1   -1.016   -0.431    2.304   Oh    81      QbD  -0.668000
  1606  H1O   -1.540   -0.875    2.976   Ho    81      QbD   0.414000
  1607   O5    0.233   -1.264   -0.376   Os    81      QbD  -0.452000
  1608   C5    0.091   -0.215   -1.559   Cg    81      QbD   0.271000
  1609   H5    0.664   -0.569   -2.417   H1    81      QbD   0.000000
  1610   C6   -1.394   -0.081   -1.954   Cg    81      QbD   0.281000
  1611  H61   -1.530    0.761   -2.632   H1    81      QbD   0.000000
  1612  H62   -2.002    0.096   -1.065   H1    81      QbD   0.000000
  1613   O6   -1.859   -1.274   -2.619   Os    81      QbD  -0.462000
  1614   C4    0.787    1.142   -0.994   Cg    81      QbD   0.225000
  1615   H4    1.747    1.252   -1.500   H1    81      QbD   0.000000
  1616   O4   -0.000    2.340   -1.254   Os    81      QbD  -0.469000
  1617   C3    1.061    0.923    0.604   Cg    81      QbD   0.440000
  1618   H3    0.250    1.408    1.148   H1    81      QbD   0.000000
  1619   O3    2.298    1.569    1.006   Os    81      QbD  -0.522000
  1620   C2   -0.985   -0.310    0.805   Cg    82      QbU   0.247000
  1621   C1   -0.626   -1.129    2.075   Cg    82      QbU   0.299000
  1622  H11    0.456   -1.134    2.212   H1    82      QbU   0.000000
  1623  H12   -1.077   -0.675    2.959   H1    82      QbU   0.000000
  1624   O1   -1.081   -2.496    1.969   Oh    82      QbU  -0.627000
  1625  H1O   -0.745   -3.003    2.712   Ho    82      QbU   0.382000
  1626   C3   -0.403    1.217    0.802   Cg    82      QbU   0.382000
  1627   H3   -1.199    1.900    0.498   H1    82      QbU   0.000000
  1628   C4    0.783    1.282   -0.325   Cg    82      QbU   0.283000
  1629   H4    1.750    1.261    0.180   H1    82      QbU   0.000000
  1630   C5    0.673   -0.061   -1.230   Cg    82      QbU   0.210000
  1631   H5    1.648   -0.550   -1.260   H1    82      QbU   0.000000
  1632   C6    0.178    0.164   -2.672   Cg    82      QbU   0.332000
  1633  H61    0.857    0.837   -3.196   H1    82      QbU   0.000000
  1634  H62   -0.814    0.615   -2.665   H1    82      QbU   0.000000
  1635   O6    0.126   -1.083   -3.394   Os    82      QbU  -0.486000
  1636   O5   -0.340   -0.993   -0.451   Os    82      QbU  -0.385000
  1637   O4    0.712    2.499   -1.116   Os    82      QbU  -0.515000
  1638   O3    0.088    1.659    2.098   Os    82      QbU  -0.510000
  1639   C2    0.999   -0.665    0.908   Cg    83      QcD   0.284000
  1640   C1    0.344   -1.194    2.217   Cg    83      QcD   0.370000
  1641  H11    0.405   -2.282    2.255   H1    83      QcD   0.000000
  1642  H12    0.876   -0.794    3.081   H1    83      QcD   0.000000
  1643   O1   -1.039   -0.800    2.307   Oh    83      QcD  -0.688000
  1644  H1O   -1.065    0.152    2.127   Ho    83      QcD   0.414000
  1645   O5    0.357   -1.299   -0.370   Os    83      QcD  -0.498000
  1646   C5    0.097   -0.250   -1.528   Cg    83      QcD   0.309000
  1647   H5    0.673   -0.535   -2.411   H1    83      QcD   0.000000
  1648   C6   -1.400   -0.192   -1.875   Cg    83      QcD   0.265000
  1649  H61   -1.607    0.690   -2.482   H1    83      QcD   0.000000
  1650  H62   -1.992   -0.120   -0.962   H1    83      QcD   0.000000
  1651   O6   -1.810   -1.359   -2.616   Os    83      QcD  -0.446000
  1652   C4    0.625    1.164   -0.937   Cg    83      QcD   0.332000
  1653   H4   -0.116    1.952   -1.078   H1    83      QcD   0.000000
  1654   O4    1.839    1.558   -1.632   Os    83      QcD  -0.534000
  1655   C3    0.967    0.953    0.651   Cg    83      QcD   0.282000
  1656   H3    1.923    1.409    0.914   H1    83      QcD   0.000000
  1657   O3   -0.076    1.609    1.434   Os    83      QcD  -0.478000
  1658   C2   -0.959   -0.729    0.573   Cg    84      QcU   0.239000
  1659   C1   -0.541   -2.196    0.762   Cg    84      QcU   0.287000
  1660  H11    0.538   -2.295    0.637   H1    84      QcU   0.000000
  1661  H12   -0.799   -2.543    1.764   H1    84      QcU   0.000000
  1662   O1   -1.193   -3.028   -0.211   Oh    84      QcU  -0.624000
  1663  H1O   -0.924   -3.941   -0.083   Ho    84      QcU   0.401000
  1664   C3   -0.051    0.275    1.492   Cg    84      QcU   0.333000
  1665   H3    0.476   -0.260    2.283   H1    84      QcU   0.000000
  1666   C4    0.964    1.052    0.490   Cg    84      QcU   0.293000
  1667   H4    1.048    2.117    0.713   H1    84      QcU   0.000000
  1668   C5    0.468    0.782   -1.030   Cg    84      QcU   0.310000
  1669   H5    1.284    0.397   -1.646   H1    84      QcU   0.000000
  1670   C6   -0.130    2.027   -1.686   Cg    84      QcU   0.272000
  1671  H61    0.609    2.828   -1.721   H1    84      QcU   0.000000
  1672  H62   -0.998    2.377   -1.126   H1    84      QcU   0.000000
  1673   O6   -0.527    1.696   -3.023   Os    84      QcU  -0.449000
  1674   O5   -0.662   -0.312   -0.917   Os    84      QcU  -0.449000
  1675   O4    2.253    0.442    0.643   Os    84      QcU  -0.526000
  1676   O3   -0.855    1.310    2.086   Os    84      QcU  -0.475000
  1677   C2    0.972   -0.749    0.880   Cg    85      QjD   0.192000
  1678   C1    0.309   -1.299    2.173   Cg    85      QjD   0.389000
  1679  H11    0.362   -2.389    2.190   H1    85      QjD   0.000000
  1680  H12    0.838   -0.921    3.049   H1    85      QjD   0.000000
  1681   O1   -1.070   -0.901    2.260   Oh    85      QjD  -0.654000
  1682  H1O   -1.081    0.056    2.110   Ho    85      QjD   0.380000
  1683   O5    0.272   -1.287   -0.415   Os    85      QjD  -0.410000
  1684   C5    0.093   -0.181   -1.536   Cg    85      QjD   0.190000
  1685   H5    0.645   -0.480   -2.428   H1    85      QjD   0.000000
  1686   C6   -1.403   -0.037   -1.880   Cg    85      QjD   0.340000
  1687  H61   -1.561    0.833   -2.517   H1    85      QjD   0.000000
  1688  H62   -1.989    0.093   -0.971   H1    85      QjD   0.000000
  1689   O6   -1.873   -1.202   -2.588   Os    85      QjD  -0.494000
  1690   C4    0.782    1.151   -0.911   Cg    85      QjD   0.233000
  1691   H4    1.765    1.249   -1.371   H1    85      QjD   0.000000
  1692   O4    0.041    2.377   -1.183   Os    85      QjD  -0.451000
  1693   C3    1.017    0.877    0.691   Cg    85      QjD   0.393000
  1694   H3    1.960    1.308    1.029   H1    85      QjD   0.000000
  1695   O3   -0.079    1.500    1.418   Os    85      QjD  -0.496000
  1696   C2   -1.048   -0.286    0.736   Cg    86      QjU   0.351000
  1697   C1   -0.747   -1.085    2.035   Cg    86      QjU   0.333000
  1698  H11    0.330   -1.133    2.193   H1    86      QjU   0.000000
  1699  H12   -1.191   -0.583    2.895   H1    86      QjU   0.000000
  1700   O1   -1.265   -2.436    1.962   Oh    86      QjU  -0.697000
  1701  H1O   -0.981   -2.932    2.734   Ho    86      QjU   0.415000
  1702   C3   -0.379    1.214    0.795   Cg    86      QjU   0.223000
  1703   H3   -0.050    1.465    1.803   H1    86      QjU   0.000000
  1704   C4    0.892    1.199   -0.240   Cg    86      QjU   0.284000
  1705   H4    1.801    1.075    0.350   H1    86      QjU   0.000000
  1706   C5    0.744   -0.105   -1.188   Cg    86      QjU   0.100000
  1707   H5    1.684   -0.655   -1.190   H1    86      QjU   0.000000
  1708   C6    0.314    0.182   -2.636   Cg    86      QjU   0.349000
  1709  H61    1.019    0.851   -3.129   H1    86      QjU   0.000000
  1710  H62   -0.675    0.639   -2.653   H1    86      QjU   0.000000
  1711   O6    0.273   -1.066   -3.342   Os    86      QjU  -0.467000
  1712   O5   -0.376   -0.988   -0.496   Os    86      QjU  -0.389000
  1713   O4    1.000    2.429   -0.984   Os    86      QjU  -0.441000
  1714   O3   -1.345    2.216    0.354   Os    86      QjU  -0.449000
  1715   C2    0.958   -1.066   -0.242   Cg    87      QpD   0.324000
  1716   C1    0.448   -2.357    0.408   Cg    87      QpD   0.286000
  1717  H11    0.274   -3.124   -0.349   H1    87      QpD   0.000000
  1718  H12    1.178   -2.738    1.123   H1    87      QpD   0.000000
  1719   O1   -0.784   -2.092    1.091   Oh    87      QpD  -0.691000
  1720  H1O   -1.099   -2.897    1.508   Ho    87      QpD   0.419000
  1721   O5   -0.130   -0.483   -1.226   Os    87      QpD  -0.453000
  1722   C5   -0.282    1.084   -1.102   Cg    87      QpD   0.194000
  1723   H5   -0.039    1.546   -2.061   H1    87      QpD   0.000000
  1724   C6   -1.732    1.404   -0.734   Cg    87      QpD   0.291000
  1725  H61   -1.853    2.475   -0.572   H1    87      QpD   0.000000
  1726  H62   -2.024    0.878    0.176   H1    87      QpD   0.000000
  1727   O6   -2.578    0.995   -1.816   Os    87      QpD  -0.478000
  1728   C4    0.774    1.535    0.050   Cg    87      QpD   0.282000
  1729   H4    0.341    2.230    0.771   H1    87      QpD   0.000000
  1730   O4    1.862    2.169   -0.641   Os    87      QpD  -0.456000
  1731   C3    1.302    0.170    0.766   Cg    87      QpD   0.334000
  1732   H3    0.703    0.040    1.667   H1    87      QpD   0.000000
  1733   O3    2.681    0.231    1.180   Os    87      QpD  -0.440000
  1734   C2   -0.850   -0.774    0.470   Cg    88      QpU   0.288000
  1735   C1   -0.601   -2.290    0.594   Cg    88      QpU   0.365000
  1736  H11    0.467   -2.497    0.530   H1    88      QpU   0.000000
  1737  H12   -0.964   -2.662    1.553   H1    88      QpU   0.000000
  1738   O1   -1.270   -2.991   -0.468   Oh    88      QpU  -0.687000
  1739  H1O   -1.115   -3.934   -0.376   Ho    88      QpU   0.418000
  1740   C3   -0.029    0.200    1.488   Cg    88      QpU   0.334000
  1741   H3   -0.727    0.870    1.994   H1    88      QpU   0.000000
  1742   C4    0.965    1.132    0.592   Cg    88      QpU   0.192000
  1743   H4    0.901    2.178    0.895   H1    88      QpU   0.000000
  1744   C5    0.553    0.922   -0.964   Cg    88      QpU   0.369000
  1745   H5    1.428    0.694   -1.577   H1    88      QpU   0.000000
  1746   C6   -0.180    2.128   -1.551   Cg    88      QpU   0.215000
  1747  H61    0.452    3.015   -1.504   H1    88      QpU   0.000000
  1748  H62   -1.100    2.326   -0.998   H1    88      QpU   0.000000
  1749   O6   -0.498    1.849   -2.920   Os    88      QpU  -0.451000
  1750   O5   -0.427   -0.312   -0.977   Os    88      QpU  -0.480000
  1751   O4    2.327    0.687    0.709   Os    88      QpU  -0.467000
  1752   O3    0.668   -0.541    2.509   Os    88      QpU  -0.484000
  1753   C2    0.870   -0.806    0.796   Cg    89      UbD   0.241000
  1754   C1    0.157   -1.206    2.108   Cg    89      UbD   0.313000
  1755  H11   -0.002   -2.285    2.130   H1    89      UbD   0.000000
  1756  H12    0.768   -0.936    2.969   H1    89      UbD   0.000000
  1757   O1   -1.121   -0.544    2.221   Oh    89      UbD  -0.668000
  1758  H1O   -1.645   -0.988    2.894   Ho    89      UbD   0.414000
  1759   O5    0.128   -1.377   -0.458   Os    89      UbD  -0.452000
  1760   C5   -0.014   -0.328   -1.641   Cg    89      UbD   0.271000
  1761   H5    0.559   -0.681   -2.500   H1    89      UbD   0.000000
  1762   C6   -1.499   -0.194   -2.036   Cg    89      UbD   0.281000
  1763  H61   -1.635    0.648   -2.714   H1    89      UbD   0.000000
  1764  H62   -2.107   -0.017   -1.147   H1    89      UbD   0.000000
  1765   O6   -1.964   -1.387   -2.701   Os    89      UbD  -0.462000
  1766   C4    0.682    1.029   -1.076   Cg    89      UbD   0.225000
  1767   H4    1.642    1.139   -1.582   H1    89      UbD   0.000000
  1768   C3    0.956    0.810    0.522   Cg    89      UbD   0.440000
  1769   H3    0.145    1.295    1.066   H1    89      UbD   0.000000
  1770   O3    2.193    1.457    0.924   Oh    89      UbD  -0.732000
  1771  H3O    1.994    2.144    1.562   Ho    89      UbD   0.404000
  1772   O4   -0.105    2.227   -1.336   Os    89      UbD  -0.469000
  1773   C2   -0.952   -0.405    0.673   Cg    90      UbU   0.247000
  1774   C1   -0.593   -1.224    1.943   Cg    90      UbU   0.299000
  1775  H11    0.489   -1.229    2.080   H1    90      UbU   0.000000
  1776  H12   -1.043   -0.770    2.827   H1    90      UbU   0.000000
  1777   O1   -1.048   -2.591    1.836   Oh    90      UbU  -0.627000
  1778  H1O   -0.712   -3.098    2.580   Ho    90      UbU   0.382000
  1779   C3   -0.370    1.123    0.669   Cg    90      UbU   0.382000
  1780   H3   -1.165    1.805    0.365   H1    90      UbU   0.000000
  1781   O3    0.122    1.564    1.966   Oh    90      UbU  -0.742000
  1782  H3O   -0.634    1.805    2.513   Ho    90      UbU   0.426000
  1783   C4    0.816    1.187   -0.457   Cg    90      UbU   0.283000
  1784   H4    1.783    1.166    0.048   H1    90      UbU   0.000000
  1785   C5    0.707   -0.156   -1.363   Cg    90      UbU   0.210000
  1786   H5    1.682   -0.645   -1.392   H1    90      UbU   0.000000
  1787   C6    0.211    0.069   -2.804   Cg    90      UbU   0.332000
  1788  H61    0.890    0.742   -3.328   H1    90      UbU   0.000000
  1789  H62   -0.781    0.520   -2.797   H1    90      UbU   0.000000
  1790   O6    0.159   -1.178   -3.526   Os    90      UbU  -0.486000
  1791   O5   -0.307   -1.088   -0.583   Os    90      UbU  -0.385000
  1792   O4    0.745    2.404   -1.248   Os    90      UbU  -0.515000
  1793   C2    0.995   -0.793    0.836   Cg    91      UcD   0.284000
  1794   C1    0.340   -1.322    2.145   Cg    91      UcD   0.370000
  1795  H11    0.402   -2.410    2.183   H1    91      UcD   0.000000
  1796  H12    0.872   -0.922    3.009   H1    91      UcD   0.000000
  1797   O1   -1.043   -0.929    2.235   Oh    91      UcD  -0.688000
  1798  H1O   -1.069    0.024    2.055   Ho    91      UcD   0.414000
  1799   O5    0.353   -1.427   -0.442   Os    91      UcD  -0.498000
  1800   C5    0.093   -0.378   -1.600   Cg    91      UcD   0.309000
  1801   H5    0.669   -0.663   -2.483   H1    91      UcD   0.000000
  1802   C6   -1.404   -0.320   -1.947   Cg    91      UcD   0.265000
  1803  H61   -1.611    0.562   -2.554   H1    91      UcD   0.000000
  1804  H62   -1.996   -0.248   -1.034   H1    91      UcD   0.000000
  1805   O6   -1.814   -1.487   -2.688   Os    91      UcD  -0.446000
  1806   C4    0.621    1.036   -1.009   Cg    91      UcD   0.332000
  1807   H4   -0.120    1.824   -1.150   H1    91      UcD   0.000000
  1808   C3    0.963    0.825    0.579   Cg    91      UcD   0.282000
  1809   H3    1.919    1.281    0.842   H1    91      UcD   0.000000
  1810   O3   -0.080    1.481    1.362   Oh    91      UcD  -0.716000
  1811  H3O    0.074    2.434    1.364   Ho    91      UcD   0.432000
  1812   O4    1.835    1.430   -1.704   Os    91      UcD  -0.534000
  1813   C2   -0.883   -0.774    0.440   Cg    92      UcU   0.239000
  1814   C1   -0.466   -2.241    0.629   Cg    92      UcU   0.287000
  1815  H11    0.614   -2.340    0.504   H1    92      UcU   0.000000
  1816  H12   -0.723   -2.588    1.631   H1    92      UcU   0.000000
  1817   O1   -1.117   -3.074   -0.344   Oh    92      UcU  -0.624000
  1818  H1O   -0.849   -3.987   -0.216   Ho    92      UcU   0.401000
  1819   C3    0.025    0.230    1.358   Cg    92      UcU   0.333000
  1820   H3    0.551   -0.306    2.150   H1    92      UcU   0.000000
  1821   O3   -0.779    1.265    1.953   Oh    92      UcU  -0.691000
  1822  H3O   -1.437    0.867    2.528   Ho    92      UcU   0.410000
  1823   C4    1.040    1.006    0.357   Cg    92      UcU   0.293000
  1824   H4    1.124    2.072    0.580   H1    92      UcU   0.000000
  1825   C5    0.543    0.736   -1.163   Cg    92      UcU   0.310000
  1826   H5    1.359    0.351   -1.779   H1    92      UcU   0.000000
  1827   C6   -0.054    1.981   -1.819   Cg    92      UcU   0.272000
  1828  H61    0.684    2.782   -1.854   H1    92      UcU   0.000000
  1829  H62   -0.922    2.332   -1.259   H1    92      UcU   0.000000
  1830   O6   -0.451    1.650   -3.156   Os    92      UcU  -0.449000
  1831   O5   -0.587   -0.358   -1.050   Os    92      UcU  -0.449000
  1832   O4    2.329    0.397    0.510   Os    92      UcU  -0.526000
  1833   C2    0.993   -0.859    0.838   Cg    93      UjD   0.192000
  1834   C1    0.331   -1.409    2.131   Cg    93      UjD   0.389000
  1835  H11    0.384   -2.499    2.148   H1    93      UjD   0.000000
  1836  H12    0.860   -1.031    3.007   H1    93      UjD   0.000000
  1837   O1   -1.048   -1.011    2.218   Oh    93      UjD  -0.654000
  1838  H1O   -1.060   -0.053    2.069   Ho    93      UjD   0.380000
  1839   O5    0.293   -1.396   -0.457   Os    93      UjD  -0.410000
  1840   C5    0.114   -0.290   -1.578   Cg    93      UjD   0.190000
  1841   H5    0.667   -0.590   -2.470   H1    93      UjD   0.000000
  1842   C6   -1.382   -0.147   -1.922   Cg    93      UjD   0.340000
  1843  H61   -1.540    0.723   -2.559   H1    93      UjD   0.000000
  1844  H62   -1.968   -0.017   -1.012   H1    93      UjD   0.000000
  1845   O6   -1.851   -1.311   -2.630   Os    93      UjD  -0.494000
  1846   C4    0.803    1.042   -0.953   Cg    93      UjD   0.233000
  1847   H4    1.786    1.140   -1.413   H1    93      UjD   0.000000
  1848   C3    1.038    0.767    0.649   Cg    93      UjD   0.393000
  1849   H3    1.981    1.199    0.987   H1    93      UjD   0.000000
  1850   O3   -0.057    1.390    1.376   Oh    93      UjD  -0.748000
  1851  H3O   -0.407    2.084    0.797   Ho    93      UjD   0.446000
  1852   O4    0.063    2.268   -1.225   Os    93      UjD  -0.451000
  1853   C2   -0.937   -0.375    0.720   Cg    94      UjU   0.351000
  1854   C1   -0.637   -1.174    2.019   Cg    94      UjU   0.333000
  1855  H11    0.441   -1.222    2.177   H1    94      UjU   0.000000
  1856  H12   -1.080   -0.672    2.879   H1    94      UjU   0.000000
  1857   O1   -1.154   -2.524    1.946   Oh    94      UjU  -0.697000
  1858  H1O   -0.871   -3.021    2.719   Ho    94      UjU   0.415000
  1859   C3   -0.269    1.125    0.779   Cg    94      UjU   0.223000
  1860   H3    0.060    1.376    1.787   H1    94      UjU   0.000000
  1861   O3   -1.235    2.128    0.339   Oh    94      UjU  -0.671000
  1862  H3O   -2.099    1.687    0.299   Ho    94      UjU   0.416000
  1863   C4    1.002    1.110   -0.255   Cg    94      UjU   0.284000
  1864   H4    1.912    0.987    0.334   H1    94      UjU   0.000000
  1865   C5    0.855   -0.194   -1.204   Cg    94      UjU   0.100000
  1866   H5    1.794   -0.744   -1.206   H1    94      UjU   0.000000
  1867   C6    0.424    0.093   -2.651   Cg    94      UjU   0.349000
  1868  H61    1.129    0.762   -3.145   H1    94      UjU   0.000000
  1869  H62   -0.564    0.551   -2.668   H1    94      UjU   0.000000
  1870   O6    0.383   -1.155   -3.358   Os    94      UjU  -0.467000
  1871   O5   -0.265   -1.077   -0.512   Os    94      UjU  -0.389000
  1872   O4    1.111    2.340   -1.000   Os    94      UjU  -0.441000
  1873   C2    0.818   -1.115   -0.332   Cg    95      UpD   0.324000
  1874   C1    0.308   -2.406    0.319   Cg    95      UpD   0.286000
  1875  H11    0.134   -3.173   -0.438   H1    95      UpD   0.000000
  1876  H12    1.038   -2.786    1.034   H1    95      UpD   0.000000
  1877   O1   -0.925   -2.140    1.002   Oh    95      UpD  -0.691000
  1878  H1O   -1.239   -2.945    1.419   Ho    95      UpD   0.419000
  1879   O5   -0.270   -0.532   -1.315   Os    95      UpD  -0.453000
  1880   C5   -0.422    1.036   -1.191   Cg    95      UpD   0.194000
  1881   H5   -0.179    1.498   -2.150   H1    95      UpD   0.000000
  1882   C6   -1.872    1.356   -0.823   Cg    95      UpD   0.291000
  1883  H61   -1.993    2.427   -0.661   H1    95      UpD   0.000000
  1884  H62   -2.164    0.830    0.087   H1    95      UpD   0.000000
  1885   O6   -2.718    0.946   -1.905   Os    95      UpD  -0.478000
  1886   C4    0.633    1.486   -0.039   Cg    95      UpD   0.282000
  1887   H4    0.201    2.181    0.682   H1    95      UpD   0.000000
  1888   C3    1.162    0.122    0.677   Cg    95      UpD   0.334000
  1889   H3    0.563   -0.009    1.578   H1    95      UpD   0.000000
  1890   O3    2.541    0.182    1.091   Oh    95      UpD  -0.661000
  1891  H3O    2.663    0.921    1.693   Ho    95      UpD   0.415000
  1892   O4    1.722    2.121   -0.730   Os    95      UpD  -0.456000
  1893   C2   -0.908   -0.777    0.316   Cg    96      UpU   0.288000
  1894   C1   -0.660   -2.293    0.441   Cg    96      UpU   0.365000
  1895  H11    0.409   -2.501    0.377   H1    96      UpU   0.000000
  1896  H12   -1.022   -2.665    1.400   H1    96      UpU   0.000000
  1897   O1   -1.328   -2.994   -0.621   Oh    96      UpU  -0.687000
  1898  H1O   -1.174   -3.937   -0.529   Ho    96      UpU   0.418000
  1899   C3   -0.088    0.197    1.335   Cg    96      UpU   0.334000
  1900   H3   -0.785    0.866    1.841   H1    96      UpU   0.000000
  1901   O3    0.610   -0.544    2.355   Oh    96      UpU  -0.714000
  1902  H3O    1.104    0.063    2.911   Ho    96      UpU   0.424000
  1903   C4    0.907    1.129    0.439   Cg    96      UpU   0.192000
  1904   H4    0.843    2.175    0.742   H1    96      UpU   0.000000
  1905   C5    0.495    0.918   -1.117   Cg    96      UpU   0.369000
  1906   H5    1.369    0.691   -1.731   H1    96      UpU   0.000000
  1907   C6   -0.238    2.125   -1.704   Cg    96      UpU   0.215000
  1908  H61    0.394    3.011   -1.658   H1    96      UpU   0.000000
  1909  H62   -1.158    2.322   -1.151   H1    96      UpU   0.000000
  1910   O6   -0.556    1.845   -3.073   Os    96      UpU  -0.451000
  1911   O5   -0.485   -0.315   -1.130   Os    96      UpU  -0.480000
  1912   O4    2.269    0.684    0.556   Os    96      UpU  -0.467000
  1913   C2    0.947   -0.849    0.935   Cg    97      VbD   0.241000
  1914   C1    0.234   -1.249    2.247   Cg    97      VbD   0.313000
  1915  H11    0.075   -2.328    2.269   H1    97      VbD   0.000000
  1916  H12    0.846   -0.979    3.108   H1    97      VbD   0.000000
  1917   O1   -1.043   -0.588    2.360   Oh    97      VbD  -0.668000
  1918  H1O   -1.568   -1.031    3.032   Ho    97      VbD   0.414000
  1919   O5    0.205   -1.420   -0.319   Os    97      VbD  -0.452000
  1920   C5    0.064   -0.371   -1.502   Cg    97      VbD   0.271000
  1921   H5    0.636   -0.725   -2.361   H1    97      VbD   0.000000
  1922   C6   -1.422   -0.237   -1.897   Cg    97      VbD   0.281000
  1923  H61   -1.558    0.605   -2.576   H1    97      VbD   0.000000
  1924  H62   -2.030   -0.060   -1.008   H1    97      VbD   0.000000
  1925   O6   -1.887   -1.430   -2.562   Os    97      VbD  -0.462000
  1926   C4    0.759    0.986   -0.937   Cg    97      VbD   0.225000
  1927   H4    1.719    1.096   -1.443   H1    97      VbD   0.000000
  1928   O4   -0.028    2.184   -1.197   Oh    97      VbD  -0.710000
  1929  H4O    0.524    2.966   -1.074   Ho    97      VbD   0.435000
  1930   C3    1.033    0.766    0.661   Cg    97      VbD   0.440000
  1931   H3    0.223    1.252    1.204   H1    97      VbD   0.000000
  1932   O3    2.271    1.413    1.063   Os    97      VbD  -0.522000
  1933   C2   -1.031   -0.473    0.833   Cg    98      VbU   0.247000
  1934   C1   -0.672   -1.292    2.103   Cg    98      VbU   0.299000
  1935  H11    0.410   -1.297    2.240   H1    98      VbU   0.000000
  1936  H12   -1.122   -0.838    2.987   H1    98      VbU   0.000000
  1937   O1   -1.127   -2.659    1.996   Oh    98      VbU  -0.627000
  1938  H1O   -0.791   -3.165    2.740   Ho    98      VbU   0.382000
  1939   C3   -0.449    1.055    0.829   Cg    98      VbU   0.382000
  1940   H3   -1.244    1.737    0.525   H1    98      VbU   0.000000
  1941   C4    0.737    1.119   -0.297   Cg    98      VbU   0.283000
  1942   H4    1.704    1.098    0.208   H1    98      VbU   0.000000
  1943   C5    0.628   -0.224   -1.203   Cg    98      VbU   0.210000
  1944   H5    1.603   -0.712   -1.232   H1    98      VbU   0.000000
  1945   C6    0.132    0.001   -2.644   Cg    98      VbU   0.332000
  1946  H61    0.811    0.674   -3.168   H1    98      VbU   0.000000
  1947  H62   -0.860    0.452   -2.637   H1    98      VbU   0.000000
  1948   O6    0.080   -1.246   -3.366   Os    98      VbU  -0.486000
  1949   O5   -0.386   -1.156   -0.423   Os    98      VbU  -0.385000
  1950   O4    0.666    2.336   -1.088   Oh    98      VbU  -0.755000
  1951  H4O    0.869    3.094   -0.528   Ho    98      VbU   0.434000
  1952   O3    0.042    1.496    2.126   Os    98      VbU  -0.510000
  1953   C2    0.870   -0.713    0.979   Cg    99      VcD   0.284000
  1954   C1    0.216   -1.242    2.287   Cg    99      VcD   0.370000
  1955  H11    0.277   -2.330    2.326   H1    99      VcD   0.000000
  1956  H12    0.748   -0.842    3.151   H1    99      VcD   0.000000
  1957   O1   -1.167   -0.848    2.377   Oh    99      VcD  -0.688000
  1958  H1O   -1.193    0.104    2.197   Ho    99      VcD   0.414000
  1959   O5    0.229   -1.346   -0.299   Os    99      VcD  -0.498000
  1960   C5   -0.031   -0.298   -1.457   Cg    99      VcD   0.309000
  1961   H5    0.544   -0.583   -2.341   H1    99      VcD   0.000000
  1962   C6   -1.528   -0.240   -1.805   Cg    99      VcD   0.265000
  1963  H61   -1.735    0.642   -2.412   H1    99      VcD   0.000000
  1964  H62   -2.120   -0.168   -0.891   H1    99      VcD   0.000000
  1965   O6   -1.938   -1.407   -2.546   Os    99      VcD  -0.446000
  1966   C4    0.497    1.116   -0.867   Cg    99      VcD   0.332000
  1967   H4   -0.244    1.904   -1.007   H1    99      VcD   0.000000
  1968   O4    1.711    1.510   -1.562   Oh    99      VcD  -0.784000
  1969  H4O    2.434    0.911   -1.341   Ho    99      VcD   0.444000
  1970   C3    0.839    0.905    0.721   Cg    99      VcD   0.282000
  1971   H3    1.795    1.361    0.984   H1    99      VcD   0.000000
  1972   O3   -0.204    1.561    1.504   Os    99      VcD  -0.478000
  1973   C2   -1.103   -0.772    0.570   Cg   100      VcU   0.239000
  1974   C1   -0.685   -2.239    0.760   Cg   100      VcU   0.287000
  1975  H11    0.394   -2.338    0.635   H1   100      VcU   0.000000
  1976  H12   -0.943   -2.586    1.762   H1   100      VcU   0.000000
  1977   O1   -1.337   -3.071   -0.213   Oh   100      VcU  -0.624000
  1978  H1O   -1.068   -3.984   -0.085   Ho   100      VcU   0.401000
  1979   C3   -0.195    0.232    1.489   Cg   100      VcU   0.333000
  1980   H3    0.332   -0.304    2.280   H1   100      VcU   0.000000
  1981   C4    0.820    1.009    0.488   Cg   100      VcU   0.293000
  1982   H4    0.904    2.074    0.711   H1   100      VcU   0.000000
  1983   C5    0.324    0.739   -1.033   Cg   100      VcU   0.310000
  1984   H5    1.140    0.354   -1.648   H1   100      VcU   0.000000
  1985   C6   -0.274    1.984   -1.689   Cg   100      VcU   0.272000
  1986  H61    0.465    2.785   -1.723   H1   100      VcU   0.000000
  1987  H62   -1.142    2.334   -1.128   H1   100      VcU   0.000000
  1988   O6   -0.671    1.653   -3.025   Os   100      VcU  -0.449000
  1989   O5   -0.806   -0.355   -0.919   Os   100      VcU  -0.449000
  1990   O4    2.109    0.399    0.641   Oh   100      VcU  -0.763000
  1991  H4O    2.734    0.818    0.044   Ho   100      VcU   0.431000
  1992   O3   -0.999    1.267    2.084   Os   100      VcU  -0.475000
  1993   C2    0.940   -0.903    0.954   Cg   101      VjD   0.192000
  1994   C1    0.277   -1.453    2.247   Cg   101      VjD   0.389000
  1995  H11    0.330   -2.543    2.263   H1   101      VjD   0.000000
  1996  H12    0.806   -1.074    3.123   H1   101      VjD   0.000000
  1997   O1   -1.102   -1.055    2.334   Oh   101      VjD  -0.654000
  1998  H1O   -1.113   -0.097    2.184   Ho   101      VjD   0.380000
  1999   O5    0.239   -1.440   -0.341   Os   101      VjD  -0.410000
  2000   C5    0.060   -0.334   -1.462   Cg   101      VjD   0.190000
  2001   H5    0.613   -0.634   -2.354   H1   101      VjD   0.000000
  2002   C6   -1.436   -0.191   -1.807   Cg   101      VjD   0.340000
  2003  H61   -1.593    0.680   -2.443   H1   101      VjD   0.000000
  2004  H62   -2.022   -0.060   -0.897   H1   101      VjD   0.000000
  2005   O6   -1.905   -1.355   -2.514   Os   101      VjD  -0.494000
  2006   C4    0.750    0.998   -0.837   Cg   101      VjD   0.233000
  2007   H4    1.733    1.096   -1.298   H1   101      VjD   0.000000
  2008   O4    0.009    2.224   -1.110   Oh   101      VjD  -0.671000
  2009  H4O    0.613    2.918   -1.401   Ho   101      VjD   0.414000
  2010   C3    0.984    0.723    0.765   Cg   101      VjD   0.393000
  2011   H3    1.928    1.155    1.103   H1   101      VjD   0.000000
  2012   O3   -0.111    1.347    1.492   Os   101      VjD  -0.496000
  2013   C2   -1.057   -0.433    0.776   Cg   102      VjU   0.351000
  2014   C1   -0.757   -1.232    2.074   Cg   102      VjU   0.333000
  2015  H11    0.321   -1.280    2.233   H1   102      VjU   0.000000
  2016  H12   -1.201   -0.730    2.934   H1   102      VjU   0.000000
  2017   O1   -1.274   -2.582    2.002   Oh   102      VjU  -0.697000
  2018  H1O   -0.991   -3.079    2.774   Ho   102      VjU   0.415000
  2019   C3   -0.389    1.067    0.834   Cg   102      VjU   0.223000
  2020   H3   -0.060    1.319    1.843   H1   102      VjU   0.000000
  2021   C4    0.882    1.052   -0.200   Cg   102      VjU   0.284000
  2022   H4    1.792    0.929    0.390   H1   102      VjU   0.000000
  2023   C5    0.734   -0.251   -1.149   Cg   102      VjU   0.100000
  2024   H5    1.674   -0.801   -1.150   H1   102      VjU   0.000000
  2025   C6    0.304    0.035   -2.596   Cg   102      VjU   0.349000
  2026  H61    1.009    0.704   -3.089   H1   102      VjU   0.000000
  2027  H62   -0.684    0.493   -2.613   H1   102      VjU   0.000000
  2028   O6    0.263   -1.213   -3.303   Os   102      VjU  -0.467000
  2029   O5   -0.385   -1.134   -0.456   Os   102      VjU  -0.389000
  2030   O4    0.991    2.283   -0.945   Oh   102      VjU  -0.657000
  2031  H4O    0.183    2.783   -0.753   Ho   102      VjU   0.410000
  2032   O3   -1.355    2.070    0.394   Os   102      VjU  -0.449000
  2033   C2    0.831   -1.187   -0.242   Cg   103      VpD   0.324000
  2034   C1    0.321   -2.479    0.408   Cg   103      VpD   0.286000
  2035  H11    0.147   -3.245   -0.348   H1   103      VpD   0.000000
  2036  H12    1.051   -2.859    1.124   H1   103      VpD   0.000000
  2037   O1   -0.911   -2.213    1.092   Oh   103      VpD  -0.691000
  2038  H1O   -1.226   -3.018    1.509   Ho   103      VpD   0.419000
  2039   O5   -0.257   -0.605   -1.225   Os   103      VpD  -0.453000
  2040   C5   -0.409    0.963   -1.101   Cg   103      VpD   0.194000
  2041   H5   -0.165    1.425   -2.060   H1   103      VpD   0.000000
  2042   C6   -1.858    1.283   -0.734   Cg   103      VpD   0.291000
  2043  H61   -1.980    2.354   -0.571   H1   103      VpD   0.000000
  2044  H62   -2.151    0.757    0.176   H1   103      VpD   0.000000
  2045   O6   -2.705    0.874   -1.815   Os   103      VpD  -0.478000
  2046   C4    0.647    1.413    0.051   Cg   103      VpD   0.282000
  2047   H4    0.214    2.108    0.772   H1   103      VpD   0.000000
  2048   O4    1.735    2.048   -0.640   Oh   103      VpD  -0.683000
  2049  H4O    2.410    2.305   -0.007   Ho   103      VpD   0.421000
  2050   C3    1.176    0.049    0.766   Cg   103      VpD   0.334000
  2051   H3    0.576   -0.082    1.668   H1   103      VpD   0.000000
  2052   O3    2.554    0.110    1.180   Os   103      VpD  -0.440000
  2053   C2   -0.995   -0.837    0.461   Cg   104      VpU   0.288000
  2054   C1   -0.746   -2.352    0.585   Cg   104      VpU   0.365000
  2055  H11    0.322   -2.560    0.521   H1   104      VpU   0.000000
  2056  H12   -1.108   -2.724    1.545   H1   104      VpU   0.000000
  2057   O1   -1.414   -3.053   -0.477   Oh   104      VpU  -0.687000
  2058  H1O   -1.260   -3.996   -0.385   Ho   104      VpU   0.418000
  2059   C3   -0.174    0.138    1.479   Cg   104      VpU   0.334000
  2060   H3   -0.871    0.807    1.985   H1   104      VpU   0.000000
  2061   C4    0.820    1.070    0.583   Cg   104      VpU   0.192000
  2062   H4    0.757    2.116    0.886   H1   104      VpU   0.000000
  2063   C5    0.409    0.859   -0.972   Cg   104      VpU   0.369000
  2064   H5    1.283    0.632   -1.586   H1   104      VpU   0.000000
  2065   C6   -0.325    2.065   -1.560   Cg   104      VpU   0.215000
  2066  H61    0.307    2.952   -1.513   H1   104      VpU   0.000000
  2067  H62   -1.244    2.263   -1.007   H1   104      VpU   0.000000
  2068   O6   -0.643    1.786   -2.929   Os   104      VpU  -0.451000
  2069   O5   -0.572   -0.375   -0.985   Os   104      VpU  -0.480000
  2070   O4    2.182    0.624    0.700   Oh   104      VpU  -0.711000
  2071  H4O    2.749    1.188    0.168   Ho   104      VpU   0.438000
  2072   O3    0.524   -0.603    2.500   Os   104      VpU  -0.484000
  2073   C2    1.047   -0.626    1.052   Cg   105      WbD   0.241000
  2074   C1    0.334   -1.025    2.365   Cg   105      WbD   0.313000
  2075  H11    0.175   -2.105    2.386   H1   105      WbD   0.000000
  2076  H12    0.946   -0.755    3.225   H1   105      WbD   0.000000
  2077   O1   -0.943   -0.364    2.478   Oh   105      WbD  -0.668000
  2078  H1O   -1.468   -0.808    3.150   Ho   105      WbD   0.414000
  2079   O5    0.305   -1.196   -0.202   Os   105      WbD  -0.452000
  2080   C5    0.164   -0.148   -1.385   Cg   105      WbD   0.271000
  2081   H5    0.736   -0.501   -2.243   H1   105      WbD   0.000000
  2082   C6   -1.322   -0.014   -1.779   Cg   105      WbD   0.281000
  2083  H61   -1.457    0.828   -2.458   H1   105      WbD   0.000000
  2084  H62   -1.929    0.163   -0.891   H1   105      WbD   0.000000
  2085   O6   -1.787   -1.207   -2.445   Oh   105      WbD  -0.679000
  2086  H6O   -1.379   -1.283   -3.309   Ho   105      WbD   0.411000
  2087   C4    0.859    1.209   -0.820   Cg   105      WbD   0.225000
  2088   H4    1.819    1.319   -1.326   H1   105      WbD   0.000000
  2089   O4    0.072    2.408   -1.080   Os   105      WbD  -0.469000
  2090   C3    1.133    0.990    0.778   Cg   105      WbD   0.440000
  2091   H3    0.323    1.476    1.322   H1   105      WbD   0.000000
  2092   O3    2.371    1.637    1.180   Os   105      WbD  -0.522000
  2093   C2   -1.034   -0.234    0.972   Cg   106      WbU   0.247000
  2094   C1   -0.675   -1.052    2.242   Cg   106      WbU   0.299000
  2095  H11    0.408   -1.057    2.379   H1   106      WbU   0.000000
  2096  H12   -1.125   -0.599    3.126   H1   106      WbU   0.000000
  2097   O1   -1.130   -2.420    2.135   Oh   106      WbU  -0.627000
  2098  H1O   -0.794   -2.926    2.879   Ho   106      WbU   0.382000
  2099   C3   -0.452    1.294    0.968   Cg   106      WbU   0.382000
  2100   H3   -1.247    1.976    0.664   H1   106      WbU   0.000000
  2101   C4    0.734    1.359   -0.158   Cg   106      WbU   0.283000
  2102   H4    1.702    1.338    0.347   H1   106      WbU   0.000000
  2103   C5    0.625    0.015   -1.064   Cg   106      WbU   0.210000
  2104   H5    1.600   -0.473   -1.093   H1   106      WbU   0.000000
  2105   C6    0.129    0.241   -2.505   Cg   106      WbU   0.332000
  2106  H61    0.808    0.914   -3.029   H1   106      WbU   0.000000
  2107  H62   -0.863    0.692   -2.498   H1   106      WbU   0.000000
  2108   O6    0.077   -1.007   -3.227   Oh   106      WbU  -0.701000
  2109  H6O    0.922   -1.457   -3.170   Ho   106      WbU   0.409000
  2110   O5   -0.389   -0.916   -0.284   Os   106      WbU  -0.385000
  2111   O4    0.664    2.576   -0.949   Os   106      WbU  -0.515000
  2112   O3    0.040    1.735    2.265   Os   106      WbU  -0.510000
  2113   C2    1.069   -0.596    1.082   Cg   107      WcD   0.284000
  2114   C1    0.414   -1.125    2.391   Cg   107      WcD   0.370000
  2115  H11    0.476   -2.214    2.430   H1   107      WcD   0.000000
  2116  H12    0.947   -0.725    3.255   H1   107      WcD   0.000000
  2117   O1   -0.969   -0.732    2.481   Oh   107      WcD  -0.688000
  2118  H1O   -0.995    0.221    2.301   Ho   107      WcD   0.414000
  2119   O5    0.428   -1.230   -0.196   Os   107      WcD  -0.498000
  2120   C5    0.167   -0.181   -1.354   Cg   107      WcD   0.309000
  2121   H5    0.743   -0.466   -2.237   H1   107      WcD   0.000000
  2122   C6   -1.330   -0.123   -1.701   Cg   107      WcD   0.265000
  2123  H61   -1.537    0.758   -2.308   H1   107      WcD   0.000000
  2124  H62   -1.921   -0.051   -0.787   H1   107      WcD   0.000000
  2125   O6   -1.740   -1.290   -2.442   Oh   107      WcD  -0.664000
  2126  H6O   -1.336   -1.302   -3.313   Ho   107      WcD   0.412000
  2127   C4    0.696    1.233   -0.763   Cg   107      WcD   0.332000
  2128   H4   -0.046    2.021   -0.904   H1   107      WcD   0.000000
  2129   O4    1.909    1.627   -1.458   Os   107      WcD  -0.534000
  2130   C3    1.038    1.021    0.825   Cg   107      WcD   0.282000
  2131   H3    1.993    1.478    1.088   H1   107      WcD   0.000000
  2132   O3   -0.005    1.678    1.608   Os   107      WcD  -0.478000
  2133   C2   -0.971   -0.798    0.749   Cg   108      WcU   0.239000
  2134   C1   -0.553   -2.265    0.938   Cg   108      WcU   0.287000
  2135  H11    0.526   -2.364    0.813   H1   108      WcU   0.000000
  2136  H12   -0.811   -2.612    1.940   H1   108      WcU   0.000000
  2137   O1   -1.205   -3.098   -0.035   Oh   108      WcU  -0.624000
  2138  H1O   -0.936   -4.010    0.093   Ho   108      WcU   0.401000
  2139   C3   -0.063    0.206    1.667   Cg   108      WcU   0.333000
  2140   H3    0.464   -0.330    2.459   H1   108      WcU   0.000000
  2141   C4    0.953    0.982    0.666   Cg   108      WcU   0.293000
  2142   H4    1.036    2.048    0.889   H1   108      WcU   0.000000
  2143   C5    0.456    0.712   -0.855   Cg   108      WcU   0.310000
  2144   H5    1.272    0.327   -1.470   H1   108      WcU   0.000000
  2145   C6   -0.142    1.957   -1.510   Cg   108      WcU   0.272000
  2146  H61    0.597    2.758   -1.545   H1   108      WcU   0.000000
  2147  H62   -1.010    2.308   -0.950   H1   108      WcU   0.000000
  2148   O6   -0.539    1.626   -2.847   Oh   108      WcU  -0.652000
  2149  H6O    0.225    1.321   -3.342   Ho   108      WcU   0.397000
  2150   O5   -0.674   -0.382   -0.741   Os   108      WcU  -0.449000
  2151   O4    2.241    0.373    0.819   Os   108      WcU  -0.526000
  2152   O3   -0.867    1.241    2.262   Os   108      WcU  -0.475000
  2153   C2    1.040   -0.682    1.049   Cg   109      WjD   0.192000
  2154   C1    0.377   -1.233    2.343   Cg   109      WjD   0.389000
  2155  H11    0.430   -2.323    2.359   H1   109      WjD   0.000000
  2156  H12    0.907   -0.854    3.219   H1   109      WjD   0.000000
  2157   O1   -1.002   -0.835    2.429   Oh   109      WjD  -0.654000
  2158  H1O   -1.013    0.123    2.280   Ho   109      WjD   0.380000
  2159   O5    0.340   -1.220   -0.245   Os   109      WjD  -0.410000
  2160   C5    0.161   -0.114   -1.366   Cg   109      WjD   0.190000
  2161   H5    0.713   -0.414   -2.258   H1   109      WjD   0.000000
  2162   C6   -1.335    0.029   -1.711   Cg   109      WjD   0.340000
  2163  H61   -1.493    0.900   -2.348   H1   109      WjD   0.000000
  2164  H62   -1.921    0.160   -0.801   H1   109      WjD   0.000000
  2165   O6   -1.804   -1.135   -2.419   Oh   109      WjD  -0.725000
  2166  H6O   -1.296   -1.264   -3.221   Ho   109      WjD   0.425000
  2167   C4    0.850    1.218   -0.741   Cg   109      WjD   0.233000
  2168   H4    1.833    1.316   -1.202   H1   109      WjD   0.000000
  2169   O4    0.110    2.444   -1.014   Os   109      WjD  -0.451000
  2170   C3    1.085    0.943    0.861   Cg   109      WjD   0.393000
  2171   H3    2.028    1.375    1.199   H1   109      WjD   0.000000
  2172   O3   -0.010    1.567    1.587   Os   109      WjD  -0.496000
  2173   C2   -1.039   -0.201    0.875   Cg   110      WjU   0.351000
  2174   C1   -0.739   -1.000    2.173   Cg   110      WjU   0.333000
  2175  H11    0.338   -1.048    2.332   H1   110      WjU   0.000000
  2176  H12   -1.183   -0.498    3.033   H1   110      WjU   0.000000
  2177   O1   -1.256   -2.350    2.101   Oh   110      WjU  -0.697000
  2178  H1O   -0.973   -2.847    2.873   Ho   110      WjU   0.415000
  2179   C3   -0.371    1.299    0.934   Cg   110      WjU   0.223000
  2180   H3   -0.042    1.551    1.942   H1   110      WjU   0.000000
  2181   C4    0.900    1.284   -0.101   Cg   110      WjU   0.284000
  2182   H4    1.809    1.161    0.489   H1   110      WjU   0.000000
  2183   C5    0.752   -0.019   -1.050   Cg   110      WjU   0.100000
  2184   H5    1.692   -0.570   -1.051   H1   110      WjU   0.000000
  2185   C6    0.322    0.267   -2.497   Cg   110      WjU   0.349000
  2186  H61    1.027    0.936   -2.990   H1   110      WjU   0.000000
  2187  H62   -0.666    0.725   -2.514   H1   110      WjU   0.000000
  2188   O6    0.281   -0.981   -3.204   Oh   110      WjU  -0.684000
  2189  H6O   -0.154   -1.623   -2.634   Ho   110      WjU   0.411000
  2190   O5   -0.367   -0.902   -0.357   Os   110      WjU  -0.389000
  2191   O4    1.008    2.514   -0.845   Os   110      WjU  -0.441000
  2192   O3   -1.337    2.302    0.493   Os   110      WjU  -0.449000
  2193   C2    1.074   -1.139   -0.112   Cg   111      WpD   0.324000
  2194   C1    0.564   -2.430    0.539   Cg   111      WpD   0.286000
  2195  H11    0.390   -3.197   -0.218   H1   111      WpD   0.000000
  2196  H12    1.294   -2.811    1.254   H1   111      WpD   0.000000
  2197   O1   -0.668   -2.164    1.222   Oh   111      WpD  -0.691000
  2198  H1O   -0.983   -2.970    1.639   Ho   111      WpD   0.419000
  2199   O5   -0.014   -0.556   -1.095   Os   111      WpD  -0.453000
  2200   C5   -0.166    1.012   -0.971   Cg   111      WpD   0.194000
  2201   H5    0.077    1.473   -1.930   H1   111      WpD   0.000000
  2202   C6   -1.616    1.331   -0.603   Cg   111      WpD   0.291000
  2203  H61   -1.737    2.402   -0.441   H1   111      WpD   0.000000
  2204  H62   -1.908    0.805    0.307   H1   111      WpD   0.000000
  2205   O6   -2.462    0.922   -1.685   Oh   111      WpD  -0.695000
  2206  H6O   -2.205    1.385   -2.485   Ho   111      WpD   0.411000
  2207   C4    0.890    1.462    0.181   Cg   111      WpD   0.282000
  2208   H4    0.457    2.157    0.902   H1   111      WpD   0.000000
  2209   O4    1.978    2.096   -0.510   Os   111      WpD  -0.456000
  2210   C3    1.418    0.097    0.897   Cg   111      WpD   0.334000
  2211   H3    0.819   -0.033    1.798   H1   111      WpD   0.000000
  2212   O3    2.797    0.158    1.311   Os   111      WpD  -0.440000
  2213   C2   -0.866   -0.857    0.640   Cg   112      WpU   0.288000
  2214   C1   -0.617   -2.373    0.764   Cg   112      WpU   0.365000
  2215  H11    0.451   -2.581    0.700   H1   112      WpU   0.000000
  2216  H12   -0.979   -2.745    1.724   H1   112      WpU   0.000000
  2217   O1   -1.285   -3.074   -0.297   Oh   112      WpU  -0.687000
  2218  H1O   -1.131   -4.017   -0.206   Ho   112      WpU   0.418000
  2219   C3   -0.045    0.117    1.659   Cg   112      WpU   0.334000
  2220   H3   -0.742    0.786    2.164   H1   112      WpU   0.000000
  2221   C4    0.949    1.049    0.763   Cg   112      WpU   0.192000
  2222   H4    0.886    2.095    1.066   H1   112      WpU   0.000000
  2223   C5    0.538    0.839   -0.793   Cg   112      WpU   0.369000
  2224   H5    1.412    0.611   -1.407   H1   112      WpU   0.000000
  2225   C6   -0.196    2.045   -1.380   Cg   112      WpU   0.215000
  2226  H61    0.436    2.931   -1.334   H1   112      WpU   0.000000
  2227  H62   -1.115    2.242   -0.828   H1   112      WpU   0.000000
  2228   O6   -0.514    1.765   -2.750   Oh   112      WpU  -0.678000
  2229  H6O    0.294    1.583   -3.235   Ho   112      WpU   0.421000
  2230   O5   -0.442   -0.395   -0.806   Os   112      WpU  -0.480000
  2231   O4    2.312    0.604    0.879   Os   112      WpU  -0.467000
  2232   O3    0.653   -0.624    2.679   Os   112      WpU  -0.484000
  2233   C1   -1.253   -1.060   -1.292   Cg   113      ZaD   0.368000
  2234   H1   -0.721   -1.520   -2.124   H2   113      ZaD   0.000000
  2235   O4   -0.578   -1.457    0.058   Os   113      ZaD  -0.453000
  2236   C4   -0.149   -0.205    0.932   Cg   113      ZaD   0.147000
  2237   H4   -0.794   -0.169    1.811   H1   113      ZaD   0.000000
  2238   C5    1.309   -0.325    1.383   Cg   113      ZaD   0.338000
  2239  H51    1.423   -1.168    2.065   H1   113      ZaD   0.000000
  2240  H52    1.619    0.582    1.902   H1   113      ZaD   0.000000
  2241   O5    2.147   -0.531    0.233   Oh   113      ZaD  -0.696000
  2242  H5O    1.973   -1.416   -0.105   Ho   113      ZaD   0.399000
  2243   C3   -0.420    1.084   -0.005   Cg   113      ZaD   0.370000
  2244   H3    0.524    1.561   -0.273   H1   113      ZaD   0.000000
  2245   O3   -1.230    2.044    0.710   Os   113      ZaD  -0.493000
  2246   C2   -1.183    0.569   -1.360   Cg   113      ZaD   0.278000
  2247   H2   -2.194    0.981   -1.389   H1   113      ZaD   0.000000
  2248   O2   -0.471    1.029   -2.548   Os   113      ZaD  -0.452000
  2249   C1    0.643   -0.619    1.865   Cg   114      ZaU   0.477000
  2250   H1    1.575   -0.916    2.348   H2   114      ZaU   0.000000
  2251   C2    0.572    0.992    1.590   Cg   114      ZaU   0.328000
  2252   H2    1.582    1.391    1.705   H1   114      ZaU   0.000000
  2253   C3    0.092    1.200    0.040   Cg   114      ZaU   0.215000
  2254   H3   -0.941    1.548    0.022   H1   114      ZaU   0.000000
  2255   C4    0.191   -0.240   -0.702   Cg   114      ZaU   0.327000
  2256   H4    1.029   -0.244   -1.401   H1   114      ZaU   0.000000
  2257   C5   -1.097   -0.644   -1.434   Cg   114      ZaU   0.227000
  2258  H51   -1.334    0.084   -2.211   H1   114      ZaU   0.000000
  2259  H52   -1.930   -0.680   -0.732   H1   114      ZaU   0.000000
  2260   O5   -0.935   -1.941   -2.037   Oh   114      ZaU  -0.650000
  2261  H5O   -0.572   -2.549   -1.384   Ho   114      ZaU   0.397000
  2262   O4    0.504   -1.282    0.461   Os   114      ZaU  -0.532000
  2263   O3    0.925    2.181   -0.626   Os   114      ZaU  -0.485000
  2264   O2   -0.305    1.720    2.496   Os   114      ZaU  -0.498000
  2265   C1   -1.505   -1.006   -1.085   Cg   115      ZdD   0.380000
  2266   H1   -1.137   -1.531   -1.966   H1   115      ZdD   0.000000
  2267   O4   -0.583   -1.322    0.136   Os   115      ZdD  -0.423000
  2268   C4    0.089   -0.024    0.756   Cg   115      ZdD   0.189000
  2269   H4   -0.433    0.205    1.686   H1   115      ZdD   0.000000
  2270   C5    1.570   -0.284    1.072   Cg   115      ZdD   0.305000
  2271  H51    2.104   -0.597    0.175   H1   115      ZdD   0.000000
  2272  H52    2.039    0.620    1.460   H1   115      ZdD   0.000000
  2273   O5    1.660   -1.324    2.061   Oh   115      ZdD  -0.697000
  2274  H5O    1.201   -2.099    1.723   Ho   115      ZdD   0.414000
  2275   C3   -0.253    1.167   -0.294   Cg   115      ZdD   0.298000
  2276   H3   -0.559    2.077    0.222   H1   115      ZdD   0.000000
  2277   O3    0.917    1.447   -1.096   Os   115      ZdD  -0.455000
  2278   C2   -1.449    0.613   -1.272   Cg   115      ZdD   0.229000
  2279   H2   -2.385    1.044   -0.915   H1   115      ZdD   0.000000
  2280   O2   -1.278    1.014   -2.664   Os   115      ZdD  -0.434000
  2281   C1   -1.496   -0.434    1.467   Cg   116      ZdU   0.436000
  2282   H1   -1.412   -1.036    2.371   H2   116      ZdU   0.000000
  2283   C2   -0.603    0.935    1.602   Cg   116      ZdU   0.284000
  2284   H2   -0.308    1.095    2.638   H1   116      ZdU   0.000000
  2285   C3    0.715    0.721    0.647   Cg   116      ZdU   0.300000
  2286   H3    1.555    0.454    1.290   H1   116      ZdU   0.000000
  2287   C4    0.420   -0.538   -0.330   Cg   116      ZdU   0.135000
  2288   H4    1.247   -1.246   -0.255   H1   116      ZdU   0.000000
  2289   C5    0.207   -0.168   -1.811   Cg   116      ZdU   0.373000
  2290  H51    1.107    0.301   -2.210   H1   116      ZdU   0.000000
  2291  H52   -0.622    0.534   -1.914   H1   116      ZdU   0.000000
  2292   O5   -0.076   -1.348   -2.585   Oh   116      ZdU  -0.725000
  2293  H5O    0.437   -2.083   -2.243   Ho   116      ZdU   0.418000
  2294   O4   -0.886   -1.213    0.269   Os   116      ZdU  -0.517000
  2295   O3    1.068    1.924   -0.074   Os   116      ZdU  -0.431000
  2296   O2   -1.353    2.103    1.137   Os   116      ZdU  -0.467000
  2297   C1    0.933   -0.921    1.756   Cg   117      ZrD   0.445000
  2298   H1    0.423   -1.211    2.674   H2   117      ZrD   0.000000
  2299   O4    0.192   -1.464    0.494   Os   117      ZrD  -0.513000
  2300   C4    0.075   -0.395   -0.678   Cg   117      ZrD   0.327000
  2301   H4    0.651   -0.743   -1.537   H1   117      ZrD   0.000000
  2302   C5   -1.395   -0.196   -1.091   Cg   117      ZrD   0.195000
  2303  H51   -1.472    0.632   -1.795   H1   117      ZrD   0.000000
  2304  H52   -1.995    0.049   -0.214   H1   117      ZrD   0.000000
  2305   O5   -1.934   -1.379   -1.712   Oh   117      ZrD  -0.667000
  2306  H5O   -1.475   -1.575   -2.534   Ho   117      ZrD   0.408000
  2307   C3    0.722    0.966   -0.065   Cg   117      ZrD   0.275000
  2308   H3    0.073    1.828   -0.220   H1   117      ZrD   0.000000
  2309   O3    1.989    1.205   -0.734   Os   117      ZrD  -0.495000
  2310   C2    0.971    0.703    1.535   Cg   117      ZrD   0.318000
  2311   H2    0.100    1.102    2.055   H1   117      ZrD   0.000000
  2312   O2    2.141    1.399    2.067   Os   117      ZrD  -0.487000
  2313   C1    0.548   -0.642    2.015   Cg   118      ZrU   0.378000
  2314   H1    1.446   -0.952    2.552   H1   118      ZrU   0.000000
  2315   C2    0.489    0.966    1.740   Cg   118      ZrU   0.293000
  2316   H2   -0.240    1.460    2.385   H1   118      ZrU   0.000000
  2317   C3    0.074    1.150    0.161   Cg   118      ZrU   0.289000
  2318   H3   -0.978    1.438    0.118   H1   118      ZrU   0.000000
  2319   C4    0.268   -0.278   -0.569   Cg   118      ZrU   0.102000
  2320   H4    1.175   -0.258   -1.175   H1   118      ZrU   0.000000
  2321   C5   -0.933   -0.658   -1.444   Cg   118      ZrU   0.338000
  2322  H51   -1.819   -0.811   -0.828   H1   118      ZrU   0.000000
  2323  H52   -1.142    0.139   -2.157   H1   118      ZrU   0.000000
  2324   O5   -0.645   -1.863   -2.171   Oh   118      ZrU  -0.692000
  2325  H5O   -1.390   -2.085   -2.733   Ho   118      ZrU   0.415000
  2326   O4    0.487   -1.315    0.613   Os   118      ZrU  -0.424000
  2327   O3    0.853    2.167   -0.502   Os   118      ZrU  -0.449000
  2328   O2    1.807    1.543    1.996   Os   118      ZrU  -0.444000
  2329   C1   -1.054   -1.123   -1.356   Cg   119      ZxD   0.428000
  2330   H1   -0.617   -1.344   -2.330   H1   119      ZxD   0.000000
  2331   O4   -0.096   -1.536   -0.195   Os   119      ZxD  -0.507000
  2332   C4    0.078   -0.400    0.908   Cg   119      ZxD   0.237000
  2333   H4   -0.317   -0.767    1.855   H1   119      ZxD   0.000000
  2334   C5    1.579   -0.095    1.089   Cg   119      ZxD   0.280000
  2335  H51    1.727    0.828    1.650   H1   119      ZxD   0.000000
  2336  H52    2.043   -0.906    1.652   H1   119      ZxD   0.000000
  2337   O5    2.237   -0.000   -0.189   Oh   119      ZxD  -0.678000
  2338  H5O    2.042   -0.803   -0.682   Ho   119      ZxD   0.422000
  2339   C3   -0.864    0.823    0.397   Cg   119      ZxD   0.302000
  2340   H3   -1.743    0.855    1.043   H1   119      ZxD   0.000000
  2341   O3   -0.219    2.117    0.452   Os   119      ZxD  -0.482000
  2342   C2   -1.344    0.470   -1.124   Cg   119      ZxD   0.248000
  2343   H2   -0.721    1.026   -1.826   H1   119      ZxD   0.000000
  2344   O2   -2.731    0.855   -1.343   Os   119      ZxD  -0.444000
  2345   C1   -1.434   -0.577    1.476   Cg   120      ZxU   0.388000
  2346   H1   -1.312   -1.209    2.356   H2   120      ZxU   0.000000
  2347   C2   -0.642    0.839    1.651   Cg   120      ZxU   0.382000
  2348   H2   -1.312    1.663    1.400   H1   120      ZxU   0.000000
  2349   C3    0.616    0.825    0.606   Cg   120      ZxU   0.224000
  2350   H3    1.548    0.694    1.157   H1   120      ZxU   0.000000
  2351   C4    0.428   -0.458   -0.374   Cg   120      ZxU   0.142000
  2352   H4    1.326   -1.076   -0.316   H1   120      ZxU   0.000000
  2353   C5    0.141   -0.135   -1.853   Cg   120      ZxU   0.285000
  2354  H51    0.966    0.437   -2.277   H1   120      ZxU   0.000000
  2355  H52   -0.771    0.458   -1.943   H1   120      ZxU   0.000000
  2356   O5   -0.012   -1.352   -2.606   Oh   120      ZxU  -0.635000
  2357  H5O    0.711   -1.949   -2.401   Ho   120      ZxU   0.396000
  2358   O4   -0.785   -1.271    0.242   Os   120      ZxU  -0.427000
  2359   O3    0.695    2.073   -0.128   Os   120      ZxU  -0.444000
  2360   O2   -0.163    1.038    3.010   Os   120      ZxU  -0.505000
@<TRIPOS>BOND
     1      1      2 1
     2      1      3 1
     3      1     15 1
     4      3      4 1
     5      4      5 1
     6      4      6 1
     7      4     11 1
     8      6      7 1
     9      6      8 1
    10      6      9 1
    11      9     10 1
    12     11     12 1
    13     11     13 1
    14     11     15 1
    15     13     14 1
    16     15     16 1
    17     15     17 1
    18     17     18 1
    19     19     20 1
    20     19     21 1
    21     19     32 1
    22     21     22 1
    23     21     23 1
    24     21     35 1
    25     23     24 1
    26     23     25 1
    27     23     33 1
    28     25     26 1
    29     25     27 1
    30     25     32 1
    31     27     28 1
    32     27     29 1
    33     27     30 1
    34     30     31 1
    35     33     34 1
    36     35     36 1
    37     37     38 1
    38     37     50 1
    39     37     54 1
    40     38     39 1
    41     39     40 1
    42     39     41 1
    43     39     46 1
    44     41     42 1
    45     41     43 1
    46     41     44 1
    47     44     45 1
    48     46     47 1
    49     46     48 1
    50     46     50 1
    51     48     49 1
    52     50     51 1
    53     50     52 1
    54     52     53 1
    55     54     55 1
    56     54     56 1
    57     54     57 1
    58     57     58 1
    59     59     60 1
    60     59     65 1
    61     59     76 1
    62     60     61 1
    63     60     62 1
    64     60     63 1
    65     63     64 1
    66     65     66 1
    67     65     67 1
    68     65     79 1
    69     67     68 1
    70     67     69 1
    71     67     77 1
    72     69     70 1
    73     69     71 1
    74     69     76 1
    75     71     72 1
    76     71     73 1
    77     71     74 1
    78     74     75 1
    79     77     78 1
    80     79     80 1
    81     81     82 1
    82     81     94 1
    83     81     98 1
    84     82     83 1
    85     83     84 1
    86     83     85 1
    87     83     90 1
    88     85     86 1
    89     85     87 1
    90     85     88 1
    91     88     89 1
    92     90     91 1
    93     90     92 1
    94     90     94 1
    95     92     93 1
    96     94     95 1
    97     94     96 1
    98     96     97 1
    99     98     99 1
   100     98    100 1
   101     98    101 1
   102    101    102 1
   103    103    104 1
   104    103    109 1
   105    103    120 1
   106    104    105 1
   107    104    106 1
   108    104    107 1
   109    107    108 1
   110    109    110 1
   111    109    111 1
   112    109    123 1
   113    111    112 1
   114    111    113 1
   115    111    121 1
   116    113    114 1
   117    113    115 1
   118    113    120 1
   119    115    116 1
   120    115    117 1
   121    115    118 1
   122    118    119 1
   123    121    122 1
   124    123    124 1
   125    125    126 1
   126    125    127 1
   127    125    139 1
   128    127    128 1
   129    128    129 1
   130    128    130 1
   131    128    135 1
   132    130    131 1
   133    130    132 1
   134    130    133 1
   135    133    134 1
   136    135    136 1
   137    135    137 1
   138    135    139 1
   139    137    138 1
   140    139    140 1
   141    139    141 1
   142    141    142 1
   143    143    144 1
   144    143    145 1
   145    143    156 1
   146    145    146 1
   147    145    147 1
   148    145    159 1
   149    147    148 1
   150    147    149 1
   151    147    157 1
   152    149    150 1
   153    149    151 1
   154    149    156 1
   155    151    152 1
   156    151    153 1
   157    151    154 1
   158    154    155 1
   159    157    158 1
   160    159    160 1
   161    161    162 1
   162    161    174 1
   163    161    178 1
   164    162    163 1
   165    163    164 1
   166    163    165 1
   167    163    170 1
   168    165    166 1
   169    165    167 1
   170    165    168 1
   171    168    169 1
   172    170    171 1
   173    170    172 1
   174    170    174 1
   175    172    173 1
   176    174    175 1
   177    174    176 1
   178    176    177 1
   179    178    179 1
   180    178    180 1
   181    178    181 1
   182    181    182 1
   183    183    184 1
   184    183    189 1
   185    183    200 1
   186    184    185 1
   187    184    186 1
   188    184    187 1
   189    187    188 1
   190    189    190 1
   191    189    191 1
   192    189    203 1
   193    191    192 1
   194    191    193 1
   195    191    201 1
   196    193    194 1
   197    193    195 1
   198    193    200 1
   199    195    196 1
   200    195    197 1
   201    195    198 1
   202    198    199 1
   203    201    202 1
   204    203    204 1
   205    205    206 1
   206    205    218 1
   207    205    222 1
   208    206    207 1
   209    207    208 1
   210    207    209 1
   211    207    214 1
   212    209    210 1
   213    209    211 1
   214    209    212 1
   215    212    213 1
   216    214    215 1
   217    214    216 1
   218    214    218 1
   219    216    217 1
   220    218    219 1
   221    218    220 1
   222    220    221 1
   223    222    223 1
   224    222    224 1
   225    222    225 1
   226    225    226 1
   227    227    228 1
   228    227    233 1
   229    227    244 1
   230    228    229 1
   231    228    230 1
   232    228    231 1
   233    231    232 1
   234    233    234 1
   235    233    235 1
   236    233    247 1
   237    235    236 1
   238    235    237 1
   239    235    245 1
   240    237    238 1
   241    237    239 1
   242    237    244 1
   243    239    240 1
   244    239    241 1
   245    239    242 1
   246    242    243 1
   247    245    246 1
   248    247    248 1
   249    249    250 1
   250    249    251 1
   251    249    263 1
   252    251    252 1
   253    252    253 1
   254    252    254 1
   255    252    259 1
   256    254    255 1
   257    254    256 1
   258    254    257 1
   259    257    258 1
   260    259    260 1
   261    259    261 1
   262    259    263 1
   263    261    262 1
   264    263    264 1
   265    263    265 1
   266    265    266 1
   267    267    268 1
   268    267    269 1
   269    267    280 1
   270    269    270 1
   271    269    271 1
   272    269    283 1
   273    271    272 1
   274    271    273 1
   275    271    281 1
   276    273    274 1
   277    273    275 1
   278    273    280 1
   279    275    276 1
   280    275    277 1
   281    275    278 1
   282    278    279 1
   283    281    282 1
   284    283    284 1
   285    285    286 1
   286    285    287 1
   287    285    299 1
   288    287    288 1
   289    288    289 1
   290    288    290 1
   291    288    295 1
   292    290    291 1
   293    290    292 1
   294    290    293 1
   295    293    294 1
   296    295    296 1
   297    295    297 1
   298    295    299 1
   299    297    298 1
   300    299    300 1
   301    299    301 1
   302    301    302 1
   303    303    304 1
   304    303    305 1
   305    303    316 1
   306    305    306 1
   307    305    307 1
   308    305    319 1
   309    307    308 1
   310    307    309 1
   311    307    317 1
   312    309    310 1
   313    309    311 1
   314    309    316 1
   315    311    312 1
   316    311    313 1
   317    311    314 1
   318    314    315 1
   319    317    318 1
   320    319    320 1
   321    321    322 1
   322    322    323 1
   323    322    324 1
   324    322    336 1
   325    324    325 1
   326    325    326 1
   327    325    327 1
   328    325    332 1
   329    327    328 1
   330    327    329 1
   331    327    330 1
   332    330    331 1
   333    332    333 1
   334    332    334 1
   335    332    336 1
   336    334    335 1
   337    336    337 1
   338    336    338 1
   339    338    339 1
   340    340    341 1
   341    341    342 1
   342    341    343 1
   343    341    354 1
   344    343    344 1
   345    343    345 1
   346    343    357 1
   347    345    346 1
   348    345    347 1
   349    345    355 1
   350    347    348 1
   351    347    349 1
   352    347    354 1
   353    349    350 1
   354    349    351 1
   355    349    352 1
   356    352    353 1
   357    355    356 1
   358    357    358 1
   359    359    360 1
   360    359    372 1
   361    359    376 1
   362    360    361 1
   363    361    362 1
   364    361    363 1
   365    361    368 1
   366    363    364 1
   367    363    365 1
   368    363    366 1
   369    366    367 1
   370    368    369 1
   371    368    370 1
   372    368    372 1
   373    370    371 1
   374    372    373 1
   375    372    374 1
   376    374    375 1
   377    376    377 1
   378    376    378 1
   379    376    379 1
   380    380    381 1
   381    380    392 1
   382    380    397 1
   383    381    382 1
   384    381    383 1
   385    381    395 1
   386    383    384 1
   387    383    385 1
   388    383    393 1
   389    385    386 1
   390    385    387 1
   391    385    392 1
   392    387    388 1
   393    387    389 1
   394    387    390 1
   395    390    391 1
   396    393    394 1
   397    395    396 1
   398    397    398 1
   399    397    399 1
   400    397    400 1
   401    401    402 1
   402    401    414 1
   403    401    418 1
   404    402    403 1
   405    403    404 1
   406    403    405 1
   407    403    410 1
   408    405    406 1
   409    405    407 1
   410    405    408 1
   411    408    409 1
   412    410    411 1
   413    410    412 1
   414    410    414 1
   415    412    413 1
   416    414    415 1
   417    414    416 1
   418    416    417 1
   419    418    419 1
   420    418    420 1
   421    418    421 1
   422    422    423 1
   423    422    434 1
   424    422    439 1
   425    423    424 1
   426    423    425 1
   427    423    437 1
   428    425    426 1
   429    425    427 1
   430    425    435 1
   431    427    428 1
   432    427    429 1
   433    427    434 1
   434    429    430 1
   435    429    431 1
   436    429    432 1
   437    432    433 1
   438    435    436 1
   439    437    438 1
   440    439    440 1
   441    439    441 1
   442    439    442 1
   443    443    444 1
   444    444    445 1
   445    444    446 1
   446    444    458 1
   447    446    447 1
   448    447    448 1
   449    447    449 1
   450    447    454 1
   451    449    450 1
   452    449    451 1
   453    449    452 1
   454    452    453 1
   455    454    455 1
   456    454    456 1
   457    454    458 1
   458    456    457 1
   459    458    459 1
   460    458    460 1
   461    460    461 1
   462    462    463 1
   463    463    464 1
   464    463    465 1
   465    463    476 1
   466    465    466 1
   467    465    467 1
   468    465    479 1
   469    467    468 1
   470    467    469 1
   471    467    477 1
   472    469    470 1
   473    469    471 1
   474    469    476 1
   475    471    472 1
   476    471    473 1
   477    471    474 1
   478    474    475 1
   479    477    478 1
   480    479    480 1
   481    481    482 1
   482    481    494 1
   483    481    498 1
   484    482    483 1
   485    483    484 1
   486    483    485 1
   487    483    490 1
   488    485    486 1
   489    485    487 1
   490    485    488 1
   491    488    489 1
   492    490    491 1
   493    490    492 1
   494    490    494 1
   495    492    493 1
   496    494    495 1
   497    494    496 1
   498    496    497 1
   499    498    499 1
   500    498    500 1
   501    498    501 1
   502    502    503 1
   503    502    514 1
   504    502    519 1
   505    503    504 1
   506    503    505 1
   507    503    517 1
   508    505    506 1
   509    505    507 1
   510    505    515 1
   511    507    508 1
   512    507    509 1
   513    507    514 1
   514    509    510 1
   515    509    511 1
   516    509    512 1
   517    512    513 1
   518    515    516 1
   519    517    518 1
   520    519    520 1
   521    519    521 1
   522    519    522 1
   523    523    524 1
   524    523    536 1
   525    523    540 1
   526    524    525 1
   527    525    526 1
   528    525    527 1
   529    525    532 1
   530    527    528 1
   531    527    529 1
   532    527    530 1
   533    530    531 1
   534    532    533 1
   535    532    534 1
   536    532    536 1
   537    534    535 1
   538    536    537 1
   539    536    538 1
   540    538    539 1
   541    540    541 1
   542    540    542 1
   543    540    543 1
   544    544    545 1
   545    544    556 1
   546    544    561 1
   547    545    546 1
   548    545    547 1
   549    545    559 1
   550    547    548 1
   551    547    549 1
   552    547    557 1
   553    549    550 1
   554    549    551 1
   555    549    556 1
   556    551    552 1
   557    551    553 1
   558    551    554 1
   559    554    555 1
   560    557    558 1
   561    559    560 1
   562    561    562 1
   563    561    563 1
   564    561    564 1
   565    565    566 1
   566    566    567 1
   567    566    568 1
   568    566    580 1
   569    568    569 1
   570    569    570 1
   571    569    571 1
   572    569    576 1
   573    571    572 1
   574    571    573 1
   575    571    574 1
   576    574    575 1
   577    576    577 1
   578    576    578 1
   579    576    580 1
   580    578    579 1
   581    580    581 1
   582    580    582 1
   583    582    583 1
   584    584    585 1
   585    585    586 1
   586    585    587 1
   587    585    598 1
   588    587    588 1
   589    587    589 1
   590    587    601 1
   591    589    590 1
   592    589    591 1
   593    589    599 1
   594    591    592 1
   595    591    593 1
   596    591    598 1
   597    593    594 1
   598    593    595 1
   599    593    596 1
   600    596    597 1
   601    599    600 1
   602    601    602 1
   603    603    604 1
   604    604    605 1
   605    604    606 1
   606    604    618 1
   607    606    607 1
   608    607    608 1
   609    607    609 1
   610    607    614 1
   611    609    610 1
   612    609    611 1
   613    609    612 1
   614    612    613 1
   615    614    615 1
   616    614    616 1
   617    614    618 1
   618    616    617 1
   619    618    619 1
   620    618    620 1
   621    620    621 1
   622    622    623 1
   623    623    624 1
   624    623    625 1
   625    623    636 1
   626    625    626 1
   627    625    627 1
   628    625    639 1
   629    627    628 1
   630    627    629 1
   631    627    637 1
   632    629    630 1
   633    629    631 1
   634    629    636 1
   635    631    632 1
   636    631    633 1
   637    631    634 1
   638    634    635 1
   639    637    638 1
   640    639    640 1
   641    641    642 1
   642    641    643 1
   643    641    655 1
   644    643    644 1
   645    644    645 1
   646    644    646 1
   647    644    651 1
   648    646    647 1
   649    646    648 1
   650    646    649 1
   651    649    650 1
   652    651    652 1
   653    651    653 1
   654    651    655 1
   655    653    654 1
   656    655    656 1
   657    655    657 1
   658    658    659 1
   659    658    660 1
   660    658    671 1
   661    660    661 1
   662    660    662 1
   663    660    674 1
   664    662    663 1
   665    662    664 1
   666    662    672 1
   667    664    665 1
   668    664    666 1
   669    664    671 1
   670    666    667 1
   671    666    668 1
   672    666    669 1
   673    669    670 1
   674    672    673 1
   675    675    676 1
   676    676    677 1
   677    676    689 1
   678    676    693 1
   679    677    678 1
   680    678    679 1
   681    678    680 1
   682    678    685 1
   683    680    681 1
   684    680    682 1
   685    680    683 1
   686    683    684 1
   687    685    686 1
   688    685    687 1
   689    685    689 1
   690    687    688 1
   691    689    690 1
   692    689    691 1
   693    691    692 1
   694    693    694 1
   695    693    695 1
   696    693    696 1
   697    696    697 1
   698    698    699 1
   699    699    700 1
   700    699    705 1
   701    699    716 1
   702    700    701 1
   703    700    702 1
   704    700    703 1
   705    703    704 1
   706    705    706 1
   707    705    707 1
   708    705    719 1
   709    707    708 1
   710    707    709 1
   711    707    717 1
   712    709    710 1
   713    709    711 1
   714    709    716 1
   715    711    712 1
   716    711    713 1
   717    711    714 1
   718    714    715 1
   719    717    718 1
   720    719    720 1
   721    721    722 1
   722    722    723 1
   723    722    735 1
   724    722    739 1
   725    723    724 1
   726    724    725 1
   727    724    726 1
   728    724    731 1
   729    726    727 1
   730    726    728 1
   731    726    729 1
   732    729    730 1
   733    731    732 1
   734    731    733 1
   735    731    735 1
   736    733    734 1
   737    735    736 1
   738    735    737 1
   739    737    738 1
   740    739    740 1
   741    739    741 1
   742    739    742 1
   743    742    743 1
   744    744    745 1
   745    745    746 1
   746    745    751 1
   747    745    762 1
   748    746    747 1
   749    746    748 1
   750    746    749 1
   751    749    750 1
   752    751    752 1
   753    751    753 1
   754    751    765 1
   755    753    754 1
   756    753    755 1
   757    753    763 1
   758    755    756 1
   759    755    757 1
   760    755    762 1
   761    757    758 1
   762    757    759 1
   763    757    760 1
   764    760    761 1
   765    763    764 1
   766    765    766 1
   767    767    768 1
   768    767    769 1
   769    767    781 1
   770    769    770 1
   771    770    771 1
   772    770    772 1
   773    770    777 1
   774    772    773 1
   775    772    774 1
   776    772    775 1
   777    775    776 1
   778    777    778 1
   779    777    779 1
   780    777    781 1
   781    779    780 1
   782    781    782 1
   783    781    783 1
   784    784    785 1
   785    784    786 1
   786    784    797 1
   787    786    787 1
   788    786    788 1
   789    786    800 1
   790    788    789 1
   791    788    790 1
   792    788    798 1
   793    790    791 1
   794    790    792 1
   795    790    797 1
   796    792    793 1
   797    792    794 1
   798    792    795 1
   799    795    796 1
   800    798    799 1
   801    801    802 1
   802    802    803 1
   803    802    815 1
   804    802    819 1
   805    803    804 1
   806    804    805 1
   807    804    806 1
   808    804    811 1
   809    806    807 1
   810    806    808 1
   811    806    809 1
   812    809    810 1
   813    811    812 1
   814    811    813 1
   815    811    815 1
   816    813    814 1
   817    815    816 1
   818    815    817 1
   819    817    818 1
   820    819    820 1
   821    819    821 1
   822    819    822 1
   823    822    823 1
   824    824    825 1
   825    825    826 1
   826    825    831 1
   827    825    842 1
   828    826    827 1
   829    826    828 1
   830    826    829 1
   831    829    830 1
   832    831    832 1
   833    831    833 1
   834    831    845 1
   835    833    834 1
   836    833    835 1
   837    833    843 1
   838    835    836 1
   839    835    837 1
   840    835    842 1
   841    837    838 1
   842    837    839 1
   843    837    840 1
   844    840    841 1
   845    843    844 1
   846    845    846 1
   847    847    848 1
   848    848    849 1
   849    848    861 1
   850    848    865 1
   851    849    850 1
   852    850    851 1
   853    850    852 1
   854    850    857 1
   855    852    853 1
   856    852    854 1
   857    852    855 1
   858    855    856 1
   859    857    858 1
   860    857    859 1
   861    857    861 1
   862    859    860 1
   863    861    862 1
   864    861    863 1
   865    863    864 1
   866    865    866 1
   867    865    867 1
   868    865    868 1
   869    868    869 1
   870    870    871 1
   871    871    872 1
   872    871    877 1
   873    871    888 1
   874    872    873 1
   875    872    874 1
   876    872    875 1
   877    875    876 1
   878    877    878 1
   879    877    879 1
   880    877    891 1
   881    879    880 1
   882    879    881 1
   883    879    889 1
   884    881    882 1
   885    881    883 1
   886    881    888 1
   887    883    884 1
   888    883    885 1
   889    883    886 1
   890    886    887 1
   891    889    890 1
   892    891    892 1
   893    893    894 1
   894    893    895 1
   895    893    907 1
   896    895    896 1
   897    896    897 1
   898    896    898 1
   899    896    903 1
   900    898    899 1
   901    898    900 1
   902    898    901 1
   903    901    902 1
   904    903    904 1
   905    903    905 1
   906    903    907 1
   907    905    906 1
   908    907    908 1
   909    907    909 1
   910    910    911 1
   911    910    912 1
   912    910    923 1
   913    912    913 1
   914    912    914 1
   915    912    926 1
   916    914    915 1
   917    914    916 1
   918    914    924 1
   919    916    917 1
   920    916    918 1
   921    916    923 1
   922    918    919 1
   923    918    920 1
   924    918    921 1
   925    921    922 1
   926    924    925 1
   927    927    928 1
   928    927    929 1
   929    927    941 1
   930    929    930 1
   931    930    931 1
   932    930    932 1
   933    930    937 1
   934    932    933 1
   935    932    934 1
   936    932    935 1
   937    935    936 1
   938    937    938 1
   939    937    939 1
   940    937    941 1
   941    939    940 1
   942    941    942 1
   943    941    943 1
   944    944    945 1
   945    944    946 1
   946    944    957 1
   947    946    947 1
   948    946    948 1
   949    946    960 1
   950    948    949 1
   951    948    950 1
   952    948    958 1
   953    950    951 1
   954    950    952 1
   955    950    957 1
   956    952    953 1
   957    952    954 1
   958    952    955 1
   959    955    956 1
   960    958    959 1
   961    961    962 1
   962    961    963 1
   963    961    973 1
   964    963    964 1
   965    964    965 1
   966    964    966 1
   967    964    971 1
   968    966    967 1
   969    966    968 1
   970    966    969 1
   971    969    970 1
   972    971    972 1
   973    971    973 1
   974    971    977 1
   975    973    974 1
   976    973    975 1
   977    975    976 1
   978    978    979 1
   979    978    980 1
   980    978    993 1
   981    980    981 1
   982    980    982 1
   983    980    984 1
   984    982    983 1
   985    984    985 1
   986    984    986 1
   987    984    994 1
   988    986    987 1
   989    986    988 1
   990    986    993 1
   991    988    989 1
   992    988    990 1
   993    988    991 1
   994    991    992 1
   995    995    996 1
   996    995   1001 1
   997    995   1013 1
   998    996    997 1
   999    996    998 1
  1000    996    999 1
  1001    999   1000 1
  1002   1001   1002 1
  1003   1002   1003 1
  1004   1002   1004 1
  1005   1002   1009 1
  1006   1004   1005 1
  1007   1004   1006 1
  1008   1004   1007 1
  1009   1007   1008 1
  1010   1009   1010 1
  1011   1009   1011 1
  1012   1009   1013 1
  1013   1011   1012 1
  1014   1013   1014 1
  1015   1013   1015 1
  1016   1016   1017 1
  1017   1016   1022 1
  1018   1016   1033 1
  1019   1017   1018 1
  1020   1017   1019 1
  1021   1017   1020 1
  1022   1020   1021 1
  1023   1022   1023 1
  1024   1022   1024 1
  1025   1022   1036 1
  1026   1024   1025 1
  1027   1024   1026 1
  1028   1024   1034 1
  1029   1026   1027 1
  1030   1026   1028 1
  1031   1026   1033 1
  1032   1028   1029 1
  1033   1028   1030 1
  1034   1028   1031 1
  1035   1031   1032 1
  1036   1034   1035 1
  1037   1037   1038 1
  1038   1037   1043 1
  1039   1037   1055 1
  1040   1038   1039 1
  1041   1038   1040 1
  1042   1038   1041 1
  1043   1041   1042 1
  1044   1043   1044 1
  1045   1044   1045 1
  1046   1044   1046 1
  1047   1044   1051 1
  1048   1046   1047 1
  1049   1046   1048 1
  1050   1046   1049 1
  1051   1049   1050 1
  1052   1051   1052 1
  1053   1051   1053 1
  1054   1051   1055 1
  1055   1053   1054 1
  1056   1055   1056 1
  1057   1055   1057 1
  1058   1058   1059 1
  1059   1058   1064 1
  1060   1058   1075 1
  1061   1059   1060 1
  1062   1059   1061 1
  1063   1059   1062 1
  1064   1062   1063 1
  1065   1064   1065 1
  1066   1064   1066 1
  1067   1064   1078 1
  1068   1066   1067 1
  1069   1066   1068 1
  1070   1066   1076 1
  1071   1068   1069 1
  1072   1068   1070 1
  1073   1068   1075 1
  1074   1070   1071 1
  1075   1070   1072 1
  1076   1070   1073 1
  1077   1073   1074 1
  1078   1076   1077 1
  1079   1079   1080 1
  1080   1079   1081 1
  1081   1079   1091 1
  1082   1081   1082 1
  1083   1082   1083 1
  1084   1082   1084 1
  1085   1082   1089 1
  1086   1084   1085 1
  1087   1084   1086 1
  1088   1084   1087 1
  1089   1087   1088 1
  1090   1089   1090 1
  1091   1089   1091 1
  1092   1089   1095 1
  1093   1091   1092 1
  1094   1091   1093 1
  1095   1093   1094 1
  1096   1096   1097 1
  1097   1096   1098 1
  1098   1096   1111 1
  1099   1098   1099 1
  1100   1098   1100 1
  1101   1098   1102 1
  1102   1100   1101 1
  1103   1102   1103 1
  1104   1102   1104 1
  1105   1102   1112 1
  1106   1104   1105 1
  1107   1104   1106 1
  1108   1104   1111 1
  1109   1106   1107 1
  1110   1106   1108 1
  1111   1106   1109 1
  1112   1109   1110 1
  1113   1113   1114 1
  1114   1113   1119 1
  1115   1113   1131 1
  1116   1114   1115 1
  1117   1114   1116 1
  1118   1114   1117 1
  1119   1117   1118 1
  1120   1119   1120 1
  1121   1120   1121 1
  1122   1120   1122 1
  1123   1120   1127 1
  1124   1122   1123 1
  1125   1122   1124 1
  1126   1122   1125 1
  1127   1125   1126 1
  1128   1127   1128 1
  1129   1127   1129 1
  1130   1127   1131 1
  1131   1129   1130 1
  1132   1131   1132 1
  1133   1131   1133 1
  1134   1134   1135 1
  1135   1134   1140 1
  1136   1134   1151 1
  1137   1135   1136 1
  1138   1135   1137 1
  1139   1135   1138 1
  1140   1138   1139 1
  1141   1140   1141 1
  1142   1140   1142 1
  1143   1140   1154 1
  1144   1142   1143 1
  1145   1142   1144 1
  1146   1142   1152 1
  1147   1144   1145 1
  1148   1144   1146 1
  1149   1144   1151 1
  1150   1146   1147 1
  1151   1146   1148 1
  1152   1146   1149 1
  1153   1149   1150 1
  1154   1152   1153 1
  1155   1155   1156 1
  1156   1155   1161 1
  1157   1155   1173 1
  1158   1156   1157 1
  1159   1156   1158 1
  1160   1156   1159 1
  1161   1159   1160 1
  1162   1161   1162 1
  1163   1162   1163 1
  1164   1162   1164 1
  1165   1162   1169 1
  1166   1164   1165 1
  1167   1164   1166 1
  1168   1164   1167 1
  1169   1167   1168 1
  1170   1169   1170 1
  1171   1169   1171 1
  1172   1169   1173 1
  1173   1171   1172 1
  1174   1173   1174 1
  1175   1173   1175 1
  1176   1176   1177 1
  1177   1176   1182 1
  1178   1176   1193 1
  1179   1177   1178 1
  1180   1177   1179 1
  1181   1177   1180 1
  1182   1180   1181 1
  1183   1182   1183 1
  1184   1182   1184 1
  1185   1182   1196 1
  1186   1184   1185 1
  1187   1184   1186 1
  1188   1184   1194 1
  1189   1186   1187 1
  1190   1186   1188 1
  1191   1186   1193 1
  1192   1188   1189 1
  1193   1188   1190 1
  1194   1188   1191 1
  1195   1191   1192 1
  1196   1194   1195 1
  1197   1197   1198 1
  1198   1197   1199 1
  1199   1197   1209 1
  1200   1199   1200 1
  1201   1200   1201 1
  1202   1200   1202 1
  1203   1200   1207 1
  1204   1202   1203 1
  1205   1202   1204 1
  1206   1202   1205 1
  1207   1205   1206 1
  1208   1207   1208 1
  1209   1207   1209 1
  1210   1207   1213 1
  1211   1209   1210 1
  1212   1209   1211 1
  1213   1211   1212 1
  1214   1214   1215 1
  1215   1214   1216 1
  1216   1214   1229 1
  1217   1216   1217 1
  1218   1216   1218 1
  1219   1216   1220 1
  1220   1218   1219 1
  1221   1220   1221 1
  1222   1220   1222 1
  1223   1220   1230 1
  1224   1222   1223 1
  1225   1222   1224 1
  1226   1222   1229 1
  1227   1224   1225 1
  1228   1224   1226 1
  1229   1224   1227 1
  1230   1227   1228 1
  1231   1231   1232 1
  1232   1231   1233 1
  1233   1231   1243 1
  1234   1233   1234 1
  1235   1234   1235 1
  1236   1234   1236 1
  1237   1234   1241 1
  1238   1236   1237 1
  1239   1236   1238 1
  1240   1236   1239 1
  1241   1239   1240 1
  1242   1241   1242 1
  1243   1241   1243 1
  1244   1241   1247 1
  1245   1243   1244 1
  1246   1243   1245 1
  1247   1245   1246 1
  1248   1248   1249 1
  1249   1248   1250 1
  1250   1248   1263 1
  1251   1250   1251 1
  1252   1250   1252 1
  1253   1250   1254 1
  1254   1252   1253 1
  1255   1254   1255 1
  1256   1254   1256 1
  1257   1254   1264 1
  1258   1256   1257 1
  1259   1256   1258 1
  1260   1256   1263 1
  1261   1258   1259 1
  1262   1258   1260 1
  1263   1258   1261 1
  1264   1261   1262 1
  1265   1265   1266 1
  1266   1265   1271 1
  1267   1265   1281 1
  1268   1266   1267 1
  1269   1266   1268 1
  1270   1266   1269 1
  1271   1269   1270 1
  1272   1271   1272 1
  1273   1272   1273 1
  1274   1272   1274 1
  1275   1272   1279 1
  1276   1274   1275 1
  1277   1274   1276 1
  1278   1274   1277 1
  1279   1277   1278 1
  1280   1279   1280 1
  1281   1279   1281 1
  1282   1279   1285 1
  1283   1281   1282 1
  1284   1281   1283 1
  1285   1283   1284 1
  1286   1286   1287 1
  1287   1286   1292 1
  1288   1286   1305 1
  1289   1287   1288 1
  1290   1287   1289 1
  1291   1287   1290 1
  1292   1290   1291 1
  1293   1292   1293 1
  1294   1292   1294 1
  1295   1292   1296 1
  1296   1294   1295 1
  1297   1296   1297 1
  1298   1296   1298 1
  1299   1296   1306 1
  1300   1298   1299 1
  1301   1298   1300 1
  1302   1298   1305 1
  1303   1300   1301 1
  1304   1300   1302 1
  1305   1300   1303 1
  1306   1303   1304 1
  1307   1307   1308 1
  1308   1307   1313 1
  1309   1307   1323 1
  1310   1308   1309 1
  1311   1308   1310 1
  1312   1308   1311 1
  1313   1311   1312 1
  1314   1313   1314 1
  1315   1314   1315 1
  1316   1314   1316 1
  1317   1314   1321 1
  1318   1316   1317 1
  1319   1316   1318 1
  1320   1316   1319 1
  1321   1319   1320 1
  1322   1321   1322 1
  1323   1321   1323 1
  1324   1321   1327 1
  1325   1323   1324 1
  1326   1323   1325 1
  1327   1325   1326 1
  1328   1328   1329 1
  1329   1328   1334 1
  1330   1328   1347 1
  1331   1329   1330 1
  1332   1329   1331 1
  1333   1329   1332 1
  1334   1332   1333 1
  1335   1334   1335 1
  1336   1334   1336 1
  1337   1334   1338 1
  1338   1336   1337 1
  1339   1338   1339 1
  1340   1338   1340 1
  1341   1338   1348 1
  1342   1340   1341 1
  1343   1340   1342 1
  1344   1340   1347 1
  1345   1342   1343 1
  1346   1342   1344 1
  1347   1342   1345 1
  1348   1345   1346 1
  1349   1349   1350 1
  1350   1349   1355 1
  1351   1349   1365 1
  1352   1350   1351 1
  1353   1350   1352 1
  1354   1350   1353 1
  1355   1353   1354 1
  1356   1355   1356 1
  1357   1356   1357 1
  1358   1356   1358 1
  1359   1356   1363 1
  1360   1358   1359 1
  1361   1358   1360 1
  1362   1358   1361 1
  1363   1361   1362 1
  1364   1363   1364 1
  1365   1363   1365 1
  1366   1363   1369 1
  1367   1365   1366 1
  1368   1365   1367 1
  1369   1367   1368 1
  1370   1370   1371 1
  1371   1370   1376 1
  1372   1370   1389 1
  1373   1371   1372 1
  1374   1371   1373 1
  1375   1371   1374 1
  1376   1374   1375 1
  1377   1376   1377 1
  1378   1376   1378 1
  1379   1376   1380 1
  1380   1378   1379 1
  1381   1380   1381 1
  1382   1380   1382 1
  1383   1380   1390 1
  1384   1382   1383 1
  1385   1382   1384 1
  1386   1382   1389 1
  1387   1384   1385 1
  1388   1384   1386 1
  1389   1384   1387 1
  1390   1387   1388 1
  1391   1391   1392 1
  1392   1391   1397 1
  1393   1391   1407 1
  1394   1392   1393 1
  1395   1392   1394 1
  1396   1392   1395 1
  1397   1395   1396 1
  1398   1397   1398 1
  1399   1398   1399 1
  1400   1398   1400 1
  1401   1398   1405 1
  1402   1400   1401 1
  1403   1400   1402 1
  1404   1400   1403 1
  1405   1403   1404 1
  1406   1405   1406 1
  1407   1405   1407 1
  1408   1405   1411 1
  1409   1407   1408 1
  1410   1407   1409 1
  1411   1409   1410 1
  1412   1412   1413 1
  1413   1412   1418 1
  1414   1412   1431 1
  1415   1413   1414 1
  1416   1413   1415 1
  1417   1413   1416 1
  1418   1416   1417 1
  1419   1418   1419 1
  1420   1418   1420 1
  1421   1418   1422 1
  1422   1420   1421 1
  1423   1422   1423 1
  1424   1422   1424 1
  1425   1422   1432 1
  1426   1424   1425 1
  1427   1424   1426 1
  1428   1424   1431 1
  1429   1426   1427 1
  1430   1426   1428 1
  1431   1426   1429 1
  1432   1429   1430 1
  1433   1433   1434 1
  1434   1433   1439 1
  1435   1433   1446 1
  1436   1434   1435 1
  1437   1434   1436 1
  1438   1434   1437 1
  1439   1437   1438 1
  1440   1439   1440 1
  1441   1440   1441 1
  1442   1440   1442 1
  1443   1440   1450 1
  1444   1442   1443 1
  1445   1442   1444 1
  1446   1442   1446 1
  1447   1444   1445 1
  1448   1446   1447 1
  1449   1446   1448 1
  1450   1448   1449 1
  1451   1450   1451 1
  1452   1450   1452 1
  1453   1450   1453 1
  1454   1454   1455 1
  1455   1454   1460 1
  1456   1454   1470 1
  1457   1455   1456 1
  1458   1455   1457 1
  1459   1455   1458 1
  1460   1458   1459 1
  1461   1460   1461 1
  1462   1460   1462 1
  1463   1460   1464 1
  1464   1462   1463 1
  1465   1464   1465 1
  1466   1464   1466 1
  1467   1464   1468 1
  1468   1466   1467 1
  1469   1468   1469 1
  1470   1468   1470 1
  1471   1468   1471 1
  1472   1471   1472 1
  1473   1471   1473 1
  1474   1471   1474 1
  1475   1475   1476 1
  1476   1475   1481 1
  1477   1475   1488 1
  1478   1476   1477 1
  1479   1476   1478 1
  1480   1476   1479 1
  1481   1479   1480 1
  1482   1481   1482 1
  1483   1482   1483 1
  1484   1482   1484 1
  1485   1482   1492 1
  1486   1484   1485 1
  1487   1484   1486 1
  1488   1484   1488 1
  1489   1486   1487 1
  1490   1488   1489 1
  1491   1488   1490 1
  1492   1490   1491 1
  1493   1492   1493 1
  1494   1492   1494 1
  1495   1492   1495 1
  1496   1496   1497 1
  1497   1496   1502 1
  1498   1496   1512 1
  1499   1497   1498 1
  1500   1497   1499 1
  1501   1497   1500 1
  1502   1500   1501 1
  1503   1502   1503 1
  1504   1502   1504 1
  1505   1502   1506 1
  1506   1504   1505 1
  1507   1506   1507 1
  1508   1506   1508 1
  1509   1506   1510 1
  1510   1508   1509 1
  1511   1510   1511 1
  1512   1510   1512 1
  1513   1510   1513 1
  1514   1513   1514 1
  1515   1513   1515 1
  1516   1513   1516 1
  1517   1517   1518 1
  1518   1517   1523 1
  1519   1517   1530 1
  1520   1518   1519 1
  1521   1518   1520 1
  1522   1518   1521 1
  1523   1521   1522 1
  1524   1523   1524 1
  1525   1524   1525 1
  1526   1524   1526 1
  1527   1524   1534 1
  1528   1526   1527 1
  1529   1526   1528 1
  1530   1526   1530 1
  1531   1528   1529 1
  1532   1530   1531 1
  1533   1530   1532 1
  1534   1532   1533 1
  1535   1534   1535 1
  1536   1534   1536 1
  1537   1534   1537 1
  1538   1538   1539 1
  1539   1538   1544 1
  1540   1538   1554 1
  1541   1539   1540 1
  1542   1539   1541 1
  1543   1539   1542 1
  1544   1542   1543 1
  1545   1544   1545 1
  1546   1544   1546 1
  1547   1544   1548 1
  1548   1546   1547 1
  1549   1548   1549 1
  1550   1548   1550 1
  1551   1548   1552 1
  1552   1550   1551 1
  1553   1552   1553 1
  1554   1552   1554 1
  1555   1552   1555 1
  1556   1555   1556 1
  1557   1555   1557 1
  1558   1555   1558 1
  1559   1559   1560 1
  1560   1559   1565 1
  1561   1559   1572 1
  1562   1560   1561 1
  1563   1560   1562 1
  1564   1560   1563 1
  1565   1563   1564 1
  1566   1565   1566 1
  1567   1566   1567 1
  1568   1566   1568 1
  1569   1566   1576 1
  1570   1568   1569 1
  1571   1568   1570 1
  1572   1568   1572 1
  1573   1570   1571 1
  1574   1572   1573 1
  1575   1572   1574 1
  1576   1574   1575 1
  1577   1576   1577 1
  1578   1576   1578 1
  1579   1576   1579 1
  1580   1580   1581 1
  1581   1580   1586 1
  1582   1580   1596 1
  1583   1581   1582 1
  1584   1581   1583 1
  1585   1581   1584 1
  1586   1584   1585 1
  1587   1586   1587 1
  1588   1586   1588 1
  1589   1586   1590 1
  1590   1588   1589 1
  1591   1590   1591 1
  1592   1590   1592 1
  1593   1590   1594 1
  1594   1592   1593 1
  1595   1594   1595 1
  1596   1594   1596 1
  1597   1594   1597 1
  1598   1597   1598 1
  1599   1597   1599 1
  1600   1597   1600 1
  1601   1601   1602 1
  1602   1601   1607 1
  1603   1601   1617 1
  1604   1602   1603 1
  1605   1602   1604 1
  1606   1602   1605 1
  1607   1605   1606 1
  1608   1607   1608 1
  1609   1608   1609 1
  1610   1608   1610 1
  1611   1608   1614 1
  1612   1610   1611 1
  1613   1610   1612 1
  1614   1610   1613 1
  1615   1614   1615 1
  1616   1614   1616 1
  1617   1614   1617 1
  1618   1617   1618 1
  1619   1617   1619 1
  1620   1620   1621 1
  1621   1620   1626 1
  1622   1620   1636 1
  1623   1621   1622 1
  1624   1621   1623 1
  1625   1621   1624 1
  1626   1624   1625 1
  1627   1626   1627 1
  1628   1626   1628 1
  1629   1626   1638 1
  1630   1628   1629 1
  1631   1628   1630 1
  1632   1628   1637 1
  1633   1630   1631 1
  1634   1630   1632 1
  1635   1630   1636 1
  1636   1632   1633 1
  1637   1632   1634 1
  1638   1632   1635 1
  1639   1639   1640 1
  1640   1639   1645 1
  1641   1639   1655 1
  1642   1640   1641 1
  1643   1640   1642 1
  1644   1640   1643 1
  1645   1643   1644 1
  1646   1645   1646 1
  1647   1646   1647 1
  1648   1646   1648 1
  1649   1646   1652 1
  1650   1648   1649 1
  1651   1648   1650 1
  1652   1648   1651 1
  1653   1652   1653 1
  1654   1652   1654 1
  1655   1652   1655 1
  1656   1655   1656 1
  1657   1655   1657 1
  1658   1658   1659 1
  1659   1658   1664 1
  1660   1658   1674 1
  1661   1659   1660 1
  1662   1659   1661 1
  1663   1659   1662 1
  1664   1662   1663 1
  1665   1664   1665 1
  1666   1664   1666 1
  1667   1664   1676 1
  1668   1666   1667 1
  1669   1666   1668 1
  1670   1666   1675 1
  1671   1668   1669 1
  1672   1668   1670 1
  1673   1668   1674 1
  1674   1670   1671 1
  1675   1670   1672 1
  1676   1670   1673 1
  1677   1677   1678 1
  1678   1677   1683 1
  1679   1677   1693 1
  1680   1678   1679 1
  1681   1678   1680 1
  1682   1678   1681 1
  1683   1681   1682 1
  1684   1683   1684 1
  1685   1684   1685 1
  1686   1684   1686 1
  1687   1684   1690 1
  1688   1686   1687 1
  1689   1686   1688 1
  1690   1686   1689 1
  1691   1690   1691 1
  1692   1690   1692 1
  1693   1690   1693 1
  1694   1693   1694 1
  1695   1693   1695 1
  1696   1696   1697 1
  1697   1696   1702 1
  1698   1696   1712 1
  1699   1697   1698 1
  1700   1697   1699 1
  1701   1697   1700 1
  1702   1700   1701 1
  1703   1702   1703 1
  1704   1702   1704 1
  1705   1702   1714 1
  1706   1704   1705 1
  1707   1704   1706 1
  1708   1704   1713 1
  1709   1706   1707 1
  1710   1706   1708 1
  1711   1706   1712 1
  1712   1708   1709 1
  1713   1708   1710 1
  1714   1708   1711 1
  1715   1715   1716 1
  1716   1715   1721 1
  1717   1715   1731 1
  1718   1716   1717 1
  1719   1716   1718 1
  1720   1716   1719 1
  1721   1719   1720 1
  1722   1721   1722 1
  1723   1722   1723 1
  1724   1722   1724 1
  1725   1722   1728 1
  1726   1724   1725 1
  1727   1724   1726 1
  1728   1724   1727 1
  1729   1728   1729 1
  1730   1728   1730 1
  1731   1728   1731 1
  1732   1731   1732 1
  1733   1731   1733 1
  1734   1734   1735 1
  1735   1734   1740 1
  1736   1734   1750 1
  1737   1735   1736 1
  1738   1735   1737 1
  1739   1735   1738 1
  1740   1738   1739 1
  1741   1740   1741 1
  1742   1740   1742 1
  1743   1740   1752 1
  1744   1742   1743 1
  1745   1742   1744 1
  1746   1742   1751 1
  1747   1744   1745 1
  1748   1744   1746 1
  1749   1744   1750 1
  1750   1746   1747 1
  1751   1746   1748 1
  1752   1746   1749 1
  1753   1753   1754 1
  1754   1753   1759 1
  1755   1753   1768 1
  1756   1754   1755 1
  1757   1754   1756 1
  1758   1754   1757 1
  1759   1757   1758 1
  1760   1759   1760 1
  1761   1760   1761 1
  1762   1760   1762 1
  1763   1760   1766 1
  1764   1762   1763 1
  1765   1762   1764 1
  1766   1762   1765 1
  1767   1766   1767 1
  1768   1766   1768 1
  1769   1766   1772 1
  1770   1768   1769 1
  1771   1768   1770 1
  1772   1770   1771 1
  1773   1773   1774 1
  1774   1773   1779 1
  1775   1773   1791 1
  1776   1774   1775 1
  1777   1774   1776 1
  1778   1774   1777 1
  1779   1777   1778 1
  1780   1779   1780 1
  1781   1779   1781 1
  1782   1779   1783 1
  1783   1781   1782 1
  1784   1783   1784 1
  1785   1783   1785 1
  1786   1783   1792 1
  1787   1785   1786 1
  1788   1785   1787 1
  1789   1785   1791 1
  1790   1787   1788 1
  1791   1787   1789 1
  1792   1787   1790 1
  1793   1793   1794 1
  1794   1793   1799 1
  1795   1793   1808 1
  1796   1794   1795 1
  1797   1794   1796 1
  1798   1794   1797 1
  1799   1797   1798 1
  1800   1799   1800 1
  1801   1800   1801 1
  1802   1800   1802 1
  1803   1800   1806 1
  1804   1802   1803 1
  1805   1802   1804 1
  1806   1802   1805 1
  1807   1806   1807 1
  1808   1806   1808 1
  1809   1806   1812 1
  1810   1808   1809 1
  1811   1808   1810 1
  1812   1810   1811 1
  1813   1813   1814 1
  1814   1813   1819 1
  1815   1813   1831 1
  1816   1814   1815 1
  1817   1814   1816 1
  1818   1814   1817 1
  1819   1817   1818 1
  1820   1819   1820 1
  1821   1819   1821 1
  1822   1819   1823 1
  1823   1821   1822 1
  1824   1823   1824 1
  1825   1823   1825 1
  1826   1823   1832 1
  1827   1825   1826 1
  1828   1825   1827 1
  1829   1825   1831 1
  1830   1827   1828 1
  1831   1827   1829 1
  1832   1827   1830 1
  1833   1833   1834 1
  1834   1833   1839 1
  1835   1833   1848 1
  1836   1834   1835 1
  1837   1834   1836 1
  1838   1834   1837 1
  1839   1837   1838 1
  1840   1839   1840 1
  1841   1840   1841 1
  1842   1840   1842 1
  1843   1840   1846 1
  1844   1842   1843 1
  1845   1842   1844 1
  1846   1842   1845 1
  1847   1846   1847 1
  1848   1846   1848 1
  1849   1846   1852 1
  1850   1848   1849 1
  1851   1848   1850 1
  1852   1850   1851 1
  1853   1853   1854 1
  1854   1853   1859 1
  1855   1853   1871 1
  1856   1854   1855 1
  1857   1854   1856 1
  1858   1854   1857 1
  1859   1857   1858 1
  1860   1859   1860 1
  1861   1859   1861 1
  1862   1859   1863 1
  1863   1861   1862 1
  1864   1863   1864 1
  1865   1863   1865 1
  1866   1863   1872 1
  1867   1865   1866 1
  1868   1865   1867 1
  1869   1865   1871 1
  1870   1867   1868 1
  1871   1867   1869 1
  1872   1867   1870 1
  1873   1873   1874 1
  1874   1873   1879 1
  1875   1873   1888 1
  1876   1874   1875 1
  1877   1874   1876 1
  1878   1874   1877 1
  1879   1877   1878 1
  1880   1879   1880 1
  1881   1880   1881 1
  1882   1880   1882 1
  1883   1880   1886 1
  1884   1882   1883 1
  1885   1882   1884 1
  1886   1882   1885 1
  1887   1886   1887 1
  1888   1886   1888 1
  1889   1886   1892 1
  1890   1888   1889 1
  1891   1888   1890 1
  1892   1890   1891 1
  1893   1893   1894 1
  1894   1893   1899 1
  1895   1893   1911 1
  1896   1894   1895 1
  1897   1894   1896 1
  1898   1894   1897 1
  1899   1897   1898 1
  1900   1899   1900 1
  1901   1899   1901 1
  1902   1899   1903 1
  1903   1901   1902 1
  1904   1903   1904 1
  1905   1903   1905 1
  1906   1903   1912 1
  1907   1905   1906 1
  1908   1905   1907 1
  1909   1905   1911 1
  1910   1907   1908 1
  1911   1907   1909 1
  1912   1907   1910 1
  1913   1913   1914 1
  1914   1913   1919 1
  1915   1913   1930 1
  1916   1914   1915 1
  1917   1914   1916 1
  1918   1914   1917 1
  1919   1917   1918 1
  1920   1919   1920 1
  1921   1920   1921 1
  1922   1920   1922 1
  1923   1920   1926 1
  1924   1922   1923 1
  1925   1922   1924 1
  1926   1922   1925 1
  1927   1926   1927 1
  1928   1926   1928 1
  1929   1926   1930 1
  1930   1928   1929 1
  1931   1930   1931 1
  1932   1930   1932 1
  1933   1933   1934 1
  1934   1933   1939 1
  1935   1933   1949 1
  1936   1934   1935 1
  1937   1934   1936 1
  1938   1934   1937 1
  1939   1937   1938 1
  1940   1939   1940 1
  1941   1939   1941 1
  1942   1939   1952 1
  1943   1941   1942 1
  1944   1941   1943 1
  1945   1941   1950 1
  1946   1943   1944 1
  1947   1943   1945 1
  1948   1943   1949 1
  1949   1945   1946 1
  1950   1945   1947 1
  1951   1945   1948 1
  1952   1950   1951 1
  1953   1953   1954 1
  1954   1953   1959 1
  1955   1953   1970 1
  1956   1954   1955 1
  1957   1954   1956 1
  1958   1954   1957 1
  1959   1957   1958 1
  1960   1959   1960 1
  1961   1960   1961 1
  1962   1960   1962 1
  1963   1960   1966 1
  1964   1962   1963 1
  1965   1962   1964 1
  1966   1962   1965 1
  1967   1966   1967 1
  1968   1966   1968 1
  1969   1966   1970 1
  1970   1968   1969 1
  1971   1970   1971 1
  1972   1970   1972 1
  1973   1973   1974 1
  1974   1973   1979 1
  1975   1973   1989 1
  1976   1974   1975 1
  1977   1974   1976 1
  1978   1974   1977 1
  1979   1977   1978 1
  1980   1979   1980 1
  1981   1979   1981 1
  1982   1979   1992 1
  1983   1981   1982 1
  1984   1981   1983 1
  1985   1981   1990 1
  1986   1983   1984 1
  1987   1983   1985 1
  1988   1983   1989 1
  1989   1985   1986 1
  1990   1985   1987 1
  1991   1985   1988 1
  1992   1990   1991 1
  1993   1993   1994 1
  1994   1993   1999 1
  1995   1993   2010 1
  1996   1994   1995 1
  1997   1994   1996 1
  1998   1994   1997 1
  1999   1997   1998 1
  2000   1999   2000 1
  2001   2000   2001 1
  2002   2000   2002 1
  2003   2000   2006 1
  2004   2002   2003 1
  2005   2002   2004 1
  2006   2002   2005 1
  2007   2006   2007 1
  2008   2006   2008 1
  2009   2006   2010 1
  2010   2008   2009 1
  2011   2010   2011 1
  2012   2010   2012 1
  2013   2013   2014 1
  2014   2013   2019 1
  2015   2013   2029 1
  2016   2014   2015 1
  2017   2014   2016 1
  2018   2014   2017 1
  2019   2017   2018 1
  2020   2019   2020 1
  2021   2019   2021 1
  2022   2019   2032 1
  2023   2021   2022 1
  2024   2021   2023 1
  2025   2021   2030 1
  2026   2023   2024 1
  2027   2023   2025 1
  2028   2023   2029 1
  2029   2025   2026 1
  2030   2025   2027 1
  2031   2025   2028 1
  2032   2030   2031 1
  2033   2033   2034 1
  2034   2033   2039 1
  2035   2033   2050 1
  2036   2034   2035 1
  2037   2034   2036 1
  2038   2034   2037 1
  2039   2037   2038 1
  2040   2039   2040 1
  2041   2040   2041 1
  2042   2040   2042 1
  2043   2040   2046 1
  2044   2042   2043 1
  2045   2042   2044 1
  2046   2042   2045 1
  2047   2046   2047 1
  2048   2046   2048 1
  2049   2046   2050 1
  2050   2048   2049 1
  2051   2050   2051 1
  2052   2050   2052 1
  2053   2053   2054 1
  2054   2053   2059 1
  2055   2053   2069 1
  2056   2054   2055 1
  2057   2054   2056 1
  2058   2054   2057 1
  2059   2057   2058 1
  2060   2059   2060 1
  2061   2059   2061 1
  2062   2059   2072 1
  2063   2061   2062 1
  2064   2061   2063 1
  2065   2061   2070 1
  2066   2063   2064 1
  2067   2063   2065 1
  2068   2063   2069 1
  2069   2065   2066 1
  2070   2065   2067 1
  2071   2065   2068 1
  2072   2070   2071 1
  2073   2073   2074 1
  2074   2073   2079 1
  2075   2073   2090 1
  2076   2074   2075 1
  2077   2074   2076 1
  2078   2074   2077 1
  2079   2077   2078 1
  2080   2079   2080 1
  2081   2080   2081 1
  2082   2080   2082 1
  2083   2080   2087 1
  2084   2082   2083 1
  2085   2082   2084 1
  2086   2082   2085 1
  2087   2085   2086 1
  2088   2087   2088 1
  2089   2087   2089 1
  2090   2087   2090 1
  2091   2090   2091 1
  2092   2090   2092 1
  2093   2093   2094 1
  2094   2093   2099 1
  2095   2093   2110 1
  2096   2094   2095 1
  2097   2094   2096 1
  2098   2094   2097 1
  2099   2097   2098 1
  2100   2099   2100 1
  2101   2099   2101 1
  2102   2099   2112 1
  2103   2101   2102 1
  2104   2101   2103 1
  2105   2101   2111 1
  2106   2103   2104 1
  2107   2103   2105 1
  2108   2103   2110 1
  2109   2105   2106 1
  2110   2105   2107 1
  2111   2105   2108 1
  2112   2108   2109 1
  2113   2113   2114 1
  2114   2113   2119 1
  2115   2113   2130 1
  2116   2114   2115 1
  2117   2114   2116 1
  2118   2114   2117 1
  2119   2117   2118 1
  2120   2119   2120 1
  2121   2120   2121 1
  2122   2120   2122 1
  2123   2120   2127 1
  2124   2122   2123 1
  2125   2122   2124 1
  2126   2122   2125 1
  2127   2125   2126 1
  2128   2127   2128 1
  2129   2127   2129 1
  2130   2127   2130 1
  2131   2130   2131 1
  2132   2130   2132 1
  2133   2133   2134 1
  2134   2133   2139 1
  2135   2133   2150 1
  2136   2134   2135 1
  2137   2134   2136 1
  2138   2134   2137 1
  2139   2137   2138 1
  2140   2139   2140 1
  2141   2139   2141 1
  2142   2139   2152 1
  2143   2141   2142 1
  2144   2141   2143 1
  2145   2141   2151 1
  2146   2143   2144 1
  2147   2143   2145 1
  2148   2143   2150 1
  2149   2145   2146 1
  2150   2145   2147 1
  2151   2145   2148 1
  2152   2148   2149 1
  2153   2153   2154 1
  2154   2153   2159 1
  2155   2153   2170 1
  2156   2154   2155 1
  2157   2154   2156 1
  2158   2154   2157 1
  2159   2157   2158 1
  2160   2159   2160 1
  2161   2160   2161 1
  2162   2160   2162 1
  2163   2160   2167 1
  2164   2162   2163 1
  2165   2162   2164 1
  2166   2162   2165 1
  2167   2165   2166 1
  2168   2167   2168 1
  2169   2167   2169 1
  2170   2167   2170 1
  2171   2170   2171 1
  2172   2170   2172 1
  2173   2173   2174 1
  2174   2173   2179 1
  2175   2173   2190 1
  2176   2174   2175 1
  2177   2174   2176 1
  2178   2174   2177 1
  2179   2177   2178 1
  2180   2179   2180 1
  2181   2179   2181 1
  2182   2179   2192 1
  2183   2181   2182 1
  2184   2181   2183 1
  2185   2181   2191 1
  2186   2183   2184 1
  2187   2183   2185 1
  2188   2183   2190 1
  2189   2185   2186 1
  2190   2185   2187 1
  2191   2185   2188 1
  2192   2188   2189 1
  2193   2193   2194 1
  2194   2193   2199 1
  2195   2193   2210 1
  2196   2194   2195 1
  2197   2194   2196 1
  2198   2194   2197 1
  2199   2197   2198 1
  2200   2199   2200 1
  2201   2200   2201 1
  2202   2200   2202 1
  2203   2200   2207 1
  2204   2202   2203 1
  2205   2202   2204 1
  2206   2202   2205 1
  2207   2205   2206 1
  2208   2207   2208 1
  2209   2207   2209 1
  2210   2207   2210 1
  2211   2210   2211 1
  2212   2210   2212 1
  2213   2213   2214 1
  2214   2213   2219 1
  2215   2213   2230 1
  2216   2214   2215 1
  2217   2214   2216 1
  2218   2214   2217 1
  2219   2217   2218 1
  2220   2219   2220 1
  2221   2219   2221 1
  2222   2219   2232 1
  2223   2221   2222 1
  2224   2221   2223 1
  2225   2221   2231 1
  2226   2223   2224 1
  2227   2223   2225 1
  2228   2223   2230 1
  2229   2225   2226 1
  2230   2225   2227 1
  2231   2225   2228 1
  2232   2228   2229 1
  2233   2233   2234 1
  2234   2233   2235 1
  2235   2233   2246 1
  2236   2235   2236 1
  2237   2236   2237 1
  2238   2236   2238 1
  2239   2236   2243 1
  2240   2238   2239 1
  2241   2238   2240 1
  2242   2238   2241 1
  2243   2241   2242 1
  2244   2243   2244 1
  2245   2243   2245 1
  2246   2243   2246 1
  2247   2246   2247 1
  2248   2246   2248 1
  2249   2249   2250 1
  2250   2249   2251 1
  2251   2249   2262 1
  2252   2251   2252 1
  2253   2251   2253 1
  2254   2251   2264 1
  2255   2253   2254 1
  2256   2253   2255 1
  2257   2253   2263 1
  2258   2255   2256 1
  2259   2255   2257 1
  2260   2255   2262 1
  2261   2257   2258 1
  2262   2257   2259 1
  2263   2257   2260 1
  2264   2260   2261 1
  2265   2265   2266 1
  2266   2265   2267 1
  2267   2265   2278 1
  2268   2267   2268 1
  2269   2268   2269 1
  2270   2268   2270 1
  2271   2268   2275 1
  2272   2270   2271 1
  2273   2270   2272 1
  2274   2270   2273 1
  2275   2273   2274 1
  2276   2275   2276 1
  2277   2275   2277 1
  2278   2275   2278 1
  2279   2278   2279 1
  2280   2278   2280 1
  2281   2281   2282 1
  2282   2281   2283 1
  2283   2281   2294 1
  2284   2283   2284 1
  2285   2283   2285 1
  2286   2283   2296 1
  2287   2285   2286 1
  2288   2285   2287 1
  2289   2285   2295 1
  2290   2287   2288 1
  2291   2287   2289 1
  2292   2287   2294 1
  2293   2289   2290 1
  2294   2289   2291 1
  2295   2289   2292 1
  2296   2292   2293 1
  2297   2297   2298 1
  2298   2297   2299 1
  2299   2297   2310 1
  2300   2299   2300 1
  2301   2300   2301 1
  2302   2300   2302 1
  2303   2300   2307 1
  2304   2302   2303 1
  2305   2302   2304 1
  2306   2302   2305 1
  2307   2305   2306 1
  2308   2307   2308 1
  2309   2307   2309 1
  2310   2307   2310 1
  2311   2310   2311 1
  2312   2310   2312 1
  2313   2313   2314 1
  2314   2313   2315 1
  2315   2313   2326 1
  2316   2315   2316 1
  2317   2315   2317 1
  2318   2315   2328 1
  2319   2317   2318 1
  2320   2317   2319 1
  2321   2317   2327 1
  2322   2319   2320 1
  2323   2319   2321 1
  2324   2319   2326 1
  2325   2321   2322 1
  2326   2321   2323 1
  2327   2321   2324 1
  2328   2324   2325 1
  2329   2329   2330 1
  2330   2329   2331 1
  2331   2329   2342 1
  2332   2331   2332 1
  2333   2332   2333 1
  2334   2332   2334 1
  2335   2332   2339 1
  2336   2334   2335 1
  2337   2334   2336 1
  2338   2334   2337 1
  2339   2337   2338 1
  2340   2339   2340 1
  2341   2339   2341 1
  2342   2339   2342 1
  2343   2342   2343 1
  2344   2342   2344 1
  2345   2345   2346 1
  2346   2345   2347 1
  2347   2345   2358 1
  2348   2347   2348 1
  2349   2347   2349 1
  2350   2347   2360 1
  2351   2349   2350 1
  2352   2349   2351 1
  2353   2349   2359 1
  2354   2351   2352 1
  2355   2351   2353 1
  2356   2351   2358 1
  2357   2353   2354 1
  2358   2353   2355 1
  2359   2353   2356 1
  2360   2356   2357 1
@<TRIPOS>SUBSTRUCTURE
    1      0aD      1 ****               0 ****  **** 
    2      0aU     19 ****               0 ****  **** 
    3      0bD     37 ****               0 ****  **** 
    4      0bU     59 ****               0 ****  **** 
    5      0cD     81 ****               0 ****  **** 
    6      0cU    103 ****               0 ****  **** 
    7      0dD    125 ****               0 ****  **** 
    8      0dU    143 ****               0 ****  **** 
    9      0jD    161 ****               0 ****  **** 
   10      0jU    183 ****               0 ****  **** 
   11      0pD    205 ****               0 ****  **** 
   12      0pU    227 ****               0 ****  **** 
   13      0rD    249 ****               0 ****  **** 
   14      0rU    267 ****               0 ****  **** 
   15      0xD    285 ****               0 ****  **** 
   16      0xU    303 ****               0 ****  **** 
   17      1aD    321 ****               0 ****  **** 
   18      1aU    340 ****               0 ****  **** 
   19      1bD    359 ****               0 ****  **** 
   20      1bU    380 ****               0 ****  **** 
   21      1cD    401 ****               0 ****  **** 
   22      1cU    422 ****               0 ****  **** 
   23      1dD    443 ****               0 ****  **** 
   24      1dU    462 ****               0 ****  **** 
   25      1jD    481 ****               0 ****  **** 
   26      1jU    502 ****               0 ****  **** 
   27      1pD    523 ****               0 ****  **** 
   28      1pU    544 ****               0 ****  **** 
   29      1rD    565 ****               0 ****  **** 
   30      1rU    584 ****               0 ****  **** 
   31      1xD    603 ****               0 ****  **** 
   32      1xU    622 ****               0 ****  **** 
   33      2aD    641 ****               0 ****  **** 
   34      2aU    658 ****               0 ****  **** 
   35      2bD    675 ****               0 ****  **** 
   36      2bU    698 ****               0 ****  **** 
   37      2cD    721 ****               0 ****  **** 
   38      2cU    744 ****               0 ****  **** 
   39      2dD    767 ****               0 ****  **** 
   40      2dU    784 ****               0 ****  **** 
   41      2jD    801 ****               0 ****  **** 
   42      2jU    824 ****               0 ****  **** 
   43      2pD    847 ****               0 ****  **** 
   44      2pU    870 ****               0 ****  **** 
   45      2rD    893 ****               0 ****  **** 
   46      2rU    910 ****               0 ****  **** 
   47      2xD    927 ****               0 ****  **** 
   48      2xU    944 ****               0 ****  **** 
   49      3aD    961 ****               0 ****  **** 
   50      3aU    978 ****               0 ****  **** 
   51      3bD    995 ****               0 ****  **** 
   52      3bU   1016 ****               0 ****  **** 
   53      3cD   1037 ****               0 ****  **** 
   54      3cU   1058 ****               0 ****  **** 
   55      3dD   1079 ****               0 ****  **** 
   56      3dU   1096 ****               0 ****  **** 
   57      3jD   1113 ****               0 ****  **** 
   58      3jU   1134 ****               0 ****  **** 
   59      3pD   1155 ****               0 ****  **** 
   60      3pU   1176 ****               0 ****  **** 
   61      3rD   1197 ****               0 ****  **** 
   62      3rU   1214 ****               0 ****  **** 
   63      3xD   1231 ****               0 ****  **** 
   64      3xU   1248 ****               0 ****  **** 
   65      4bD   1265 ****               0 ****  **** 
   66      4bU   1286 ****               0 ****  **** 
   67      4cD   1307 ****               0 ****  **** 
   68      4cU   1328 ****               0 ****  **** 
   69      4jD   1349 ****               0 ****  **** 
   70      4jU   1370 ****               0 ****  **** 
   71      4pD   1391 ****               0 ****  **** 
   72      4pU   1412 ****               0 ****  **** 
   73      6bD   1433 ****               0 ****  **** 
   74      6bU   1454 ****               0 ****  **** 
   75      6cD   1475 ****               0 ****  **** 
   76      6cU   1496 ****               0 ****  **** 
   77      6jD   1517 ****               0 ****  **** 
   78      6jU   1538 ****               0 ****  **** 
   79      6pD   1559 ****               0 ****  **** 
   80      6pU   1580 ****               0 ****  **** 
   81      QbD   1601 ****               0 ****  **** 
   82      QbU   1620 ****               0 ****  **** 
   83      QcD   1639 ****               0 ****  **** 
   84      QcU   1658 ****               0 ****  **** 
   85      QjD   1677 ****               0 ****  **** 
   86      QjU   1696 ****               0 ****  **** 
   87      QpD   1715 ****               0 ****  **** 
   88      QpU   1734 ****               0 ****  **** 
   89      UbD   1753 ****               0 ****  **** 
   90      UbU   1773 ****               0 ****  **** 
   91      UcD   1793 ****               0 ****  **** 
   92      UcU   1813 ****               0 ****  **** 
   93      UjD   1833 ****               0 ****  **** 
   94      UjU   1853 ****               0 ****  **** 
   95      UpD   1873 ****               0 ****  **** 
   96      UpU   1893 ****               0 ****  **** 
   97      VbD   1913 ****               0 ****  **** 
   98      VbU   1933 ****               0 ****  **** 
   99      VcD   1953 ****               0 ****  **** 
  100      VcU   1973 ****               0 ****  **** 
  101      VjD   1993 ****               0 ****  **** 
  102      VjU   2013 ****               0 ****  **** 
  103      VpD   2033 ****               0 ****  **** 
  104      VpU   2053 ****               0 ****  **** 
  105      WbD   2073 ****               0 ****  **** 
  106      WbU   2093 ****               0 ****  **** 
  107      WcD   2113 ****               0 ****  **** 
  108      WcU   2133 ****               0 ****  **** 
  109      WjD   2153 ****               0 ****  **** 
  110      WjU   2173 ****               0 ****  **** 
  111      WpD   2193 ****               0 ****  **** 
  112      WpU   2213 ****               0 ****  **** 
  113      ZaD   2233 ****               0 ****  **** 
  114      ZaU   2249 ****               0 ****  **** 
  115      ZdD   2265 ****               0 ****  **** 
  116      ZdU   2281 ****               0 ****  **** 
  117      ZrD   2297 ****               0 ****  **** 
  118      ZrU   2313 ****               0 ****  **** 
  119      ZxD   2329 ****               0 ****  **** 
  120      ZxU   2345 ****               0 ****  **** 
