@<TRIPOS>MOLECULE
l_pyranose
 10924 10924 530 0 1
SMALL
USER_CHARGES
@<TRIPOS>ATOM
     1   C1   -1.060   -1.590    0.215   Cg     1      0aA   0.448000
     2   H1   -1.980   -1.980    0.654   H2     1      0aA   0.000000
     3   O5   -1.404   -0.923   -1.065   Os     1      0aA  -0.564000
     4   C5   -0.354   -0.121   -1.731   Cg     1      0aA   0.379000
     5  H5A    0.463   -0.776   -2.036   H1     1      0aA   0.000000
     6  H5E   -0.772    0.345   -2.623   H1     1      0aA   0.000000
     7   C4    0.139    0.947   -0.750   Cg     1      0aA   0.245000
     8   H4   -0.689    1.627   -0.540   H1     1      0aA   0.000000
     9   O4    1.184    1.710   -1.374   Oh     1      0aA  -0.748000
    10  H4O    1.931    1.136   -1.559   Ho     1      0aA   0.434000
    11   C3    0.636    0.355    0.585   Cg     1      0aA   0.335000
    12   H3    0.874    1.159    1.283   H1     1      0aA   0.000000
    13   O3    1.832   -0.418    0.367   Oh     1      0aA  -0.772000
    14  H3O    2.141   -0.774    1.203   Ho     1      0aA   0.461000
    15   C2   -0.408   -0.597    1.206   Cg     1      0aA   0.268000
    16   H2    0.037   -1.143    2.041   H1     1      0aA   0.000000
    17   O2   -1.465    0.217    1.738   Oh     1      0aA  -0.735000
    18  H2O   -1.105    0.828    2.384   Ho     1      0aA   0.443000
    19   C1   -1.481   -0.823    0.944   Cg     2      0aB   0.379000
    20   H1   -0.945   -1.228    1.803   H2     2      0aB   0.000000
    21   C2   -1.146    0.694    0.768   Cg     2      0aB   0.300000
    22   H2   -1.328    1.217    1.708   H1     2      0aB   0.000000
    23   C3    0.334    0.848    0.358   Cg     2      0aB   0.297000
    24   H3    0.543    1.895    0.135   H1     2      0aB   0.000000
    25   C4    0.670   -0.016   -0.886   Cg     2      0aB   0.224000
    26   H4    0.095    0.350   -1.738   H1     2      0aB   0.000000
    27   C5    0.295   -1.498   -0.652   Cg     2      0aB   0.356000
    28  H5A    0.925   -1.935    0.124   H1     2      0aB   0.000000
    29  H5E    0.444   -2.069   -1.568   H1     2      0aB   0.000000
    30   O5   -1.129   -1.607   -0.244   Os     2      0aB  -0.529000
    31   O4    2.084    0.104   -1.221   Oh     2      0aB  -0.730000
    32  H4O    2.227    0.880   -1.774   Ho     2      0aB   0.440000
    33   O3    1.177    0.447    1.472   Oh     2      0aB  -0.668000
    34  H3O    2.085    0.390    1.146   Ho     2      0aB   0.407000
    35   O2   -1.969    1.312   -0.267   Oh     2      0aB  -0.700000
    36  H2O   -2.880    1.038   -0.108   Ho     2      0aB   0.418000
    37   C2   -0.590   -1.074    0.724   Cg     3      0bA   0.130000
    38   O6   -0.445   -1.614   -0.650   Os     3      0bA  -0.507000
    39   C6    0.810   -1.287   -1.384   Cg     3      0bA   0.341000
    40  H6A    1.640   -1.819   -0.917   H1     3      0bA   0.000000
    41  H6E    0.721   -1.643   -2.411   H1     3      0bA   0.000000
    42   C5    1.081    0.233   -1.374   Cg     3      0bA   0.224000
    43   H5    0.338    0.719   -2.008   H1     3      0bA   0.000000
    44   O5    2.398    0.470   -1.944   Oh     3      0bA  -0.690000
    45  H5O    2.456    1.384   -2.242   Ho     3      0bA   0.429000
    46   C4    0.998    0.819    0.059   Cg     3      0bA   0.335000
    47   H4    1.799    0.413    0.680   H1     3      0bA   0.000000
    48   O4    1.151    2.271   -0.006   Oh     3      0bA  -0.724000
    49  H4O    2.089    2.484    0.063   Ho     3      0bA   0.421000
    50   C3   -0.377    0.470    0.678   Cg     3      0bA   0.372000
    51   H3   -1.145    0.906    0.035   H1     3      0bA   0.000000
    52   O3   -0.544    1.062    1.998   Oh     3      0bA  -0.716000
    53  H3O   -0.223    1.969    1.943   Ho     3      0bA   0.430000
    54   C1   -1.976   -1.463    1.324   Cg     3      0bA   0.428000
    55  H11   -2.176   -2.518    1.140   H1     3      0bA   0.000000
    56  H12   -1.973   -1.310    2.405   H1     3      0bA   0.000000
    57   O1   -3.049   -0.679    0.760   Oh     3      0bA  -0.678000
    58  H1O   -2.984    0.206    1.128   Ho     3      0bA   0.399000
    59   C2   -1.286   -0.648    0.397   Cg     4      0bB   0.227000
    60   C1   -0.564   -1.263    1.638   Cg     4      0bB   0.281000
    61  H11    0.505   -1.057    1.590   H1     4      0bB   0.000000
    62  H12   -0.946   -0.817    2.558   H1     4      0bB   0.000000
    63   O1   -0.748   -2.693    1.710   Oh     4      0bB  -0.626000
    64  H1O   -0.295   -3.036    2.485   Ho     4      0bB   0.395000
    65   C3   -0.986    0.874    0.193   Cg     4      0bB   0.464000
    66   H3   -1.687    1.272   -0.545   H1     4      0bB   0.000000
    67   C4    0.456    1.133   -0.313   Cg     4      0bB   0.108000
    68   H4    1.163    0.873    0.478   H1     4      0bB   0.000000
    69   C5    0.757    0.280   -1.565   Cg     4      0bB   0.340000
    70   H5    0.168    0.647   -2.407   H1     4      0bB   0.000000
    71   C6    0.448   -1.217   -1.353   Cg     4      0bB   0.311000
    72  H6A    1.144   -1.653   -0.636   H1     4      0bB   0.000000
    73  H6E    0.548   -1.758   -2.294   H1     4      0bB   0.000000
    74   O6   -0.938   -1.376   -0.846   Os     4      0bB  -0.477000
    75   O5    2.159    0.426   -1.877   Oh     4      0bB  -0.720000
    76  H5O    2.345    1.374   -1.854   Ho     4      0bB   0.429000
    77   O4    0.634    2.544   -0.642   Oh     4      0bB  -0.675000
    78  H4O    0.390    3.075    0.129   Ho     4      0bB   0.435000
    79   O3   -1.180    1.598    1.437   Oh     4      0bB  -0.730000
    80  H3O   -2.087    1.422    1.716   Ho     4      0bB   0.432000
    81   C2   -0.615   -0.951    0.881   Cg     5      0cA   0.345000
    82   O6   -0.344   -1.536   -0.455   Os     5      0cA  -0.620000
    83   C6    0.921   -1.180   -1.142   Cg     5      0cA   0.437000
    84  H6A    1.765   -1.603   -0.594   H1     5      0cA   0.000000
    85  H6E    0.914   -1.620   -2.139   H1     5      0cA   0.000000
    86   C5    1.041    0.349   -1.245   Cg     5      0cA   0.195000
    87   H5    0.188    0.730   -1.808   H1     5      0cA   0.000000
    88   O5    2.254    0.744   -1.959   Oh     5      0cA  -0.709000
    89  H5O    2.114    0.716   -2.912   Ho     5      0cA   0.415000
    90   C4    1.012    0.967    0.170   Cg     5      0cA   0.367000
    91   H4    1.054    2.053    0.074   H1     5      0cA   0.000000
    92   O4    2.189    0.562    0.914   Oh     5      0cA  -0.720000
    93  H4O    2.957    0.744    0.358   Ho     5      0cA   0.394000
    94   C3   -0.271    0.584    0.954   Cg     5      0cA   0.247000
    95   H3   -0.143    0.864    2.002   H1     5      0cA   0.000000
    96   O3   -1.366    1.407    0.431   Oh     5      0cA  -0.655000
    97  H3O   -1.287    2.308    0.769   Ho     5      0cA   0.406000
    98   C1   -2.076   -1.287    1.336   Cg     5      0cA   0.386000
    99  H11   -2.216   -2.368    1.380   H1     5      0cA   0.000000
   100  H12   -2.244   -0.891    2.338   H1     5      0cA   0.000000
   101   O1   -3.079   -0.735    0.453   Oh     5      0cA  -0.696000
   102  H1O   -2.768    0.144    0.195   Ho     5      0cA   0.402000
   103   C2   -1.315   -0.488    0.442   Cg     6      0cB   0.244000
   104   C1   -0.630   -1.150    1.682   Cg     6      0cB   0.297000
   105  H11    0.453   -1.077    1.609   H1     6      0cB   0.000000
   106  H12   -0.936   -0.638    2.596   H1     6      0cB   0.000000
   107   O1   -0.970   -2.551    1.797   Oh     6      0cB  -0.669000
   108  H1O   -0.515   -2.929    2.555   Ho     6      0cB   0.401000
   109   C3   -0.970    1.035    0.293   Cg     6      0cB   0.317000
   110   H3   -1.051    1.520    1.266   H1     6      0cB   0.000000
   111   C4    0.442    1.284   -0.299   Cg     6      0cB   0.344000
   112   H4    0.540    2.337   -0.568   H1     6      0cB   0.000000
   113   C5    0.702    0.425   -1.562   Cg     6      0cB   0.195000
   114   H5    0.038    0.771   -2.355   H1     6      0cB   0.000000
   115   C6    0.405   -1.065   -1.317   Cg     6      0cB   0.365000
   116  H6A    1.109   -1.486   -0.597   H1     6      0cB   0.000000
   117  H6E    0.499   -1.623   -2.248   H1     6      0cB   0.000000
   118   O6   -0.977   -1.215   -0.802   Os     6      0cB  -0.460000
   119   O5    2.071    0.597   -2.030   Oh     6      0cB  -0.684000
   120  H5O    2.669    0.565   -1.274   Ho     6      0cB   0.415000
   121   O4    1.453    1.001    0.714   Oh     6      0cB  -0.698000
   122  H4O    1.654    1.814    1.191   Ho     6      0cB   0.417000
   123   O3   -1.919    1.679   -0.598   Oh     6      0cB  -0.697000
   124  H3O   -2.750    1.193   -0.493   Ho     6      0cB   0.407000
   125   C1   -0.487   -1.370   -1.280   Cg     7      0dA   0.398000
   126   H1   -0.243   -1.709   -2.287   H2     7      0dA   0.000000
   127   O5    0.472   -1.974   -0.344   Os     7      0dA  -0.487000
   128   C5    0.489   -1.458    1.054   Cg     7      0dA   0.275000
   129  H5A   -0.418   -1.796    1.559   H1     7      0dA   0.000000
   130  H5E    1.342   -1.888    1.579   H1     7      0dA   0.000000
   131   C4    0.567    0.083    1.092   Cg     7      0dA   0.351000
   132   H4    1.545    0.413    0.739   H1     7      0dA   0.000000
   133   O4    0.387    0.518    2.460   Oh     7      0dA  -0.711000
   134  H4O    0.265    1.475    2.424   Ho     7      0dA   0.422000
   135   C3   -0.551    0.696    0.219   Cg     7      0dA   0.184000
   136   H3   -1.516    0.383    0.621   H1     7      0dA   0.000000
   137   O3   -0.516    2.154    0.279   Oh     7      0dA  -0.655000
   138  H3O   -1.105    2.527   -0.384   Ho     7      0dA   0.417000
   139   C2   -0.458    0.189   -1.241   Cg     7      0dA   0.246000
   140   H2   -1.300    0.581   -1.813   H1     7      0dA   0.000000
   141   O2    0.770    0.668   -1.864   Oh     7      0dA  -0.678000
   142  H2O    0.757    0.507   -2.813   Ho     7      0dA   0.432000
   143   C1    1.402   -1.143    0.862   Cg     8      0dB   0.448000
   144   H1    1.728   -1.689   -0.024   H2     8      0dB   0.000000
   145   C2    1.349    0.366    0.546   Cg     8      0dB   0.226000
   146   H2    2.331    0.722    0.233   H1     8      0dB   0.000000
   147   C3    0.314    0.612   -0.572   Cg     8      0dB   0.201000
   148   H3    0.682    0.140   -1.484   H1     8      0dB   0.000000
   149   C4   -1.074    0.031   -0.228   Cg     8      0dB   0.335000
   150   H4   -1.540    0.609    0.571   H1     8      0dB   0.000000
   151   C5   -0.986   -1.447    0.193   Cg     8      0dB   0.275000
   152  H5A   -0.728   -2.074   -0.663   H1     8      0dB   0.000000
   153  H5E   -1.945   -1.785    0.584   H1     8      0dB   0.000000
   154   O5    0.051   -1.618    1.236   Os     8      0dB  -0.519000
   155   O4   -1.902    0.087   -1.399   Oh     8      0dB  -0.709000
   156  H4O   -1.992    1.000   -1.683   Ho     8      0dB   0.436000
   157   O3    0.203    2.027   -0.817   Oh     8      0dB  -0.701000
   158  H3O   -0.415    2.180   -1.535   Ho     8      0dB   0.432000
   159   O2    0.944    1.077    1.739   Oh     8      0dB  -0.645000
   160  H2O    1.576    0.906    2.442   Ho     8      0dB   0.415000
   161   C1   -0.431   -1.709    0.899   Cg     9      0eA   0.480000
   162   H1   -1.213   -2.274    1.408   H2     9      0eA   0.000000
   163   O5   -1.025   -1.078   -0.304   Os     9      0eA  -0.587000
   164   C5   -0.219   -0.080   -1.052   Cg     9      0eA   0.374000
   165   H5    0.680   -0.567   -1.435   H1     9      0eA   0.000000
   166   C6   -1.065    0.413   -2.234   Cg     9      0eA   0.259000
   167  H61   -2.020    0.810   -1.887   H1     9      0eA   0.000000
   168  H62   -0.541    1.200   -2.777   H1     9      0eA   0.000000
   169   O6   -1.300   -0.684   -3.127   Oh     9      0eA  -0.663000
   170  H6O   -0.460   -1.025   -3.443   Ho     9      0eA   0.406000
   171   C4    0.188    1.032   -0.065   Cg     9      0eA   0.261000
   172   H4   -0.715    1.549    0.264   H1     9      0eA   0.000000
   173   O4    1.026    1.994   -0.730   Oh     9      0eA  -0.721000
   174  H4O    1.839    1.568   -1.013   Ho     9      0eA   0.415000
   175   C3    0.919    0.496    1.185   Cg     9      0eA   0.328000
   176   H3    1.087    1.309    1.892   H1     9      0eA   0.000000
   177   O3    2.202   -0.046    0.812   Oh     9      0eA  -0.714000
   178  H3O    2.651   -0.373    1.595   Ho     9      0eA   0.420000
   179   C2    0.132   -0.642    1.864   Cg     9      0eA   0.179000
   180   H2    0.751   -1.119    2.627   H1     9      0eA   0.000000
   181   O2   -0.993   -0.046    2.531   Oh     9      0eA  -0.690000
   182  H2O   -1.492   -0.728    2.987   Ho     9      0eA   0.447000
   183   C1   -1.496   -0.305    1.346   Cg    10      0eB   0.488000
   184   H1   -0.941   -0.705    2.195   H2    10      0eB   0.000000
   185   C2   -1.184    1.211    1.151   Cg    10      0eB   0.184000
   186   H2   -1.372    1.744    2.085   H1    10      0eB   0.000000
   187   C3    0.293    1.369    0.747   Cg    10      0eB   0.315000
   188   H3    0.505    2.419    0.543   H1    10      0eB   0.000000
   189   C4    0.624    0.527   -0.517   Cg    10      0eB   0.320000
   190   H4    0.041    0.910   -1.356   H1    10      0eB   0.000000
   191   C5    0.263   -0.965   -0.306   Cg    10      0eB   0.257000
   192   H5    0.905   -1.382    0.472   H1    10      0eB   0.000000
   193   C6    0.454   -1.793   -1.592   Cg    10      0eB   0.278000
   194  H61    1.492   -1.754   -1.923   H1    10      0eB   0.000000
   195  H62   -0.175   -1.397   -2.391   H1    10      0eB   0.000000
   196   O6    0.095   -3.165   -1.351   Oh    10      0eB  -0.677000
   197  H6O   -0.777   -3.177   -0.943   Ho    10      0eB   0.408000
   198   O5   -1.163   -1.082    0.146   Os    10      0eB  -0.532000
   199   O4    2.033    0.669   -0.858   Oh    10      0eB  -0.724000
   200  H4O    2.180    1.506   -1.314   Ho    10      0eB   0.420000
   201   O3    1.118    0.953    1.869   Oh    10      0eB  -0.681000
   202  H3O    2.039    0.932    1.579   Ho    10      0eB   0.403000
   203   O2   -2.003    1.823    0.104   Oh    10      0eB  -0.697000
   204  H2O   -2.932    1.662    0.313   Ho    10      0eB   0.432000
   205   C1   -0.558   -1.203   -1.500   Cg    11      0fA   0.399000
   206   H1   -0.233   -1.609   -2.458   H2    11      0fA   0.000000
   207   O5    0.347   -1.702   -0.451   Os    11      0fA  -0.494000
   208   C5    0.180   -1.124    0.917   Cg    11      0fA   0.187000
   209   H5   -0.787   -1.455    1.300   H1    11      0fA   0.000000
   210   C6    1.254   -1.735    1.821   Cg    11      0fA   0.065000
   211  H61    2.262   -1.507    1.470   Hc    11      0fA   0.000000
   212  H62    1.163   -2.821    1.862   Hc    11      0fA   0.000000
   213  H63    1.169   -1.365    2.843   Hc    11      0fA   0.000000
   214   C4    0.152    0.430    0.884   Cg    11      0fA   0.263000
   215   H4   -0.145    0.796    1.867   H1    11      0fA   0.000000
   216   O4    1.474    0.953    0.589   Oh    11      0fA  -0.739000
   217  H4O    1.390    1.912    0.515   Ho    11      0fA   0.447000
   218   C3   -0.851    0.955   -0.174   Cg    11      0fA   0.228000
   219   H3   -1.856    0.643    0.116   H1    11      0fA   0.000000
   220   O3   -0.829    2.419   -0.175   Oh    11      0fA  -0.693000
   221  H3O   -1.652    2.741   -0.563   Ho    11      0fA   0.426000
   222   C2   -0.512    0.361   -1.565   Cg    11      0fA   0.456000
   223   H2    0.503    0.652   -1.837   H1    11      0fA   0.000000
   224   O2   -1.399    0.897   -2.598   Oh    11      0fA  -0.804000
   225  H2O   -1.073    1.761   -2.863   Ho    11      0fA   0.453000
   226   C1   -1.134   -1.403    0.716   Cg    12      0fB   0.418000
   227   H1   -0.539   -2.314    0.636   H2    12      0fB   0.000000
   228   C2   -0.452   -0.398    1.672   Cg    12      0fB   0.346000
   229   H2   -1.153    0.393    1.946   H1    12      0fB   0.000000
   230   C3    0.818    0.217    1.049   Cg    12      0fB   0.255000
   231   H3    1.587   -0.555    0.977   H1    12      0fB   0.000000
   232   C4    0.580    0.780   -0.366   Cg    12      0fB   0.229000
   233   H4    1.523    1.127   -0.792   H1    12      0fB   0.000000
   234   C5   -0.030   -0.315   -1.265   Cg    12      0fB   0.106000
   235   H5    0.679   -1.143   -1.324   H1    12      0fB   0.000000
   236   C6   -0.359    0.109   -2.698   Cg    12      0fB   0.092000
   237  H61   -0.738   -0.731   -3.281   Hc    12      0fB   0.000000
   238  H62   -1.116    0.895   -2.730   Hc    12      0fB   0.000000
   239  H63    0.527    0.486   -3.211   Hc    12      0fB   0.000000
   240   O5   -1.274   -0.813   -0.633   Os    12      0fB  -0.442000
   241   O4   -0.342    1.891   -0.301   Oh    12      0fB  -0.659000
   242  H4O   -0.495    2.232   -1.185   Ho    12      0fB   0.423000
   243   O3    1.320    1.264    1.900   Oh    12      0fB  -0.676000
   244  H3O    1.492    0.910    2.776   Ho    12      0fB   0.427000
   245   O2   -0.059   -1.120    2.853   Oh    12      0fB  -0.765000
   246  H2O   -0.835   -1.512    3.260   Ho    12      0fB   0.440000
   247   C1   -0.789   -0.618    1.771   Cg    13      0gA   0.509000
   248   H1   -1.666   -0.779    2.399   H2    13      0gA   0.000000
   249   O5   -1.019   -1.242    0.468   Os    13      0gA  -0.574000
   250   C5    0.001   -1.014   -0.608   Cg    13      0gA   0.283000
   251   H5    0.944   -1.462   -0.287   H1    13      0gA   0.000000
   252   C6   -0.454   -1.711   -1.911   Cg    13      0gA   0.276000
   253  H61   -1.491   -1.454   -2.129   H1    13      0gA   0.000000
   254  H62    0.158   -1.388   -2.753   H1    13      0gA   0.000000
   255   O6   -0.334   -3.145   -1.794   Oh    13      0gA  -0.682000
   256  H6O    0.583   -3.404   -1.910   Ho    13      0gA   0.418000
   257   C4    0.225    0.501   -0.795   Cg    13      0gA   0.254000
   258   H4   -0.674    0.949   -1.224   H1    13      0gA   0.000000
   259   O4    1.332    0.706   -1.710   Oh    13      0gA  -0.710000
   260  H4O    1.530    1.653   -1.713   Ho    13      0gA   0.436000
   261   C3    0.552    1.190    0.551   Cg    13      0gA   0.286000
   262   H3    1.523    0.845    0.913   H1    13      0gA   0.000000
   263   O3    0.620    2.624    0.333   Oh    13      0gA  -0.699000
   264  H3O    0.588    3.050    1.201   Ho    13      0gA   0.427000
   265   C2   -0.521    0.907    1.624   Cg    13      0gA   0.246000
   266   H2   -1.454    1.378    1.310   H1    13      0gA   0.000000
   267   O2   -0.126    1.509    2.900   Oh    13      0gA  -0.713000
   268  H2O    0.471    0.906    3.364   Ho    13      0gA   0.437000
   269   C1   -1.406   -0.350    1.303   Cg    14      0gB   0.384000
   270   H1   -0.832   -0.750    2.140   H2    14      0gB   0.000000
   271   C2   -1.055    1.143    1.048   Cg    14      0gB   0.310000
   272   H2   -1.753    1.557    0.318   H1    14      0gB   0.000000
   273   C3    0.387    1.272    0.510   Cg    14      0gB   0.284000
   274   H3    1.088    1.011    1.306   H1    14      0gB   0.000000
   275   C4    0.639    0.352   -0.709   Cg    14      0gB   0.276000
   276   H4    0.045    0.702   -1.556   H1    14      0gB   0.000000
   277   C5    0.267   -1.112   -0.393   Cg    14      0gB   0.225000
   278   H5    0.923   -1.486    0.395   H1    14      0gB   0.000000
   279   C6    0.399   -2.032   -1.622   Cg    14      0gB   0.282000
   280  H61    1.429   -2.051   -1.979   H1    14      0gB   0.000000
   281  H62   -0.238   -1.674   -2.432   H1    14      0gB   0.000000
   282   O6    0.002   -3.372   -1.273   Oh    14      0gB  -0.688000
   283  H6O   -0.873   -3.334   -0.877   Ho    14      0gB   0.424000
   284   O5   -1.141   -1.156    0.108   Os    14      0gB  -0.471000
   285   O4    2.041    0.413   -1.067   Oh    14      0gB  -0.714000
   286  H4O    2.282    1.346   -1.138   Ho    14      0gB   0.440000
   287   O3    0.629    2.650    0.116   Oh    14      0gB  -0.709000
   288  H3O    0.389    3.212    0.866   Ho    14      0gB   0.432000
   289   O2   -1.169    1.902    2.288   Oh    14      0gB  -0.718000
   290  H2O   -2.053    1.756    2.648   Ho    14      0gB   0.437000
   291   C1   -0.469   -1.186   -1.759   Cg    15      0hA   0.394000
   292   H1   -0.033   -1.561   -2.686   H2    15      0hA   0.000000
   293   O5    0.370   -1.632   -0.633   Os    15      0hA  -0.461000
   294   C5    0.090   -1.064    0.711   Cg    15      0hA   0.279000
   295   H5   -0.884   -1.433    1.039   H1    15      0hA   0.000000
   296   C6    1.159   -1.618    1.655   Cg    15      0hA   0.023000
   297  H61    2.159   -1.289    1.368   Hc    15      0hA   0.000000
   298  H62    1.160   -2.709    1.656   Hc    15      0hA   0.000000
   299  H63    0.990   -1.297    2.683   Hc    15      0hA   0.000000
   300   C4    0.046    0.483    0.653   Cg    15      0hA   0.187000
   301   H4    1.045    0.874    0.452   H1    15      0hA   0.000000
   302   O4   -0.412    1.005    1.933   Oh    15      0hA  -0.644000
   303  H4O    0.284    0.922    2.594   Ho    15      0hA   0.405000
   304   C3   -0.929    0.952   -0.450   Cg    15      0hA   0.236000
   305   H3   -1.939    0.632   -0.187   H1    15      0hA   0.000000
   306   O3   -0.928    2.402   -0.520   Oh    15      0hA  -0.649000
   307  H3O   -1.095    2.725    0.373   Ho    15      0hA   0.425000
   308   C2   -0.577    0.362   -1.834   Cg    15      0hA   0.248000
   309   H2   -1.350    0.640   -2.553   H1    15      0hA   0.000000
   310   O2    0.687    0.918   -2.298   Oh    15      0hA  -0.670000
   311  H2O    0.625    1.875   -2.196   Ho    15      0hA   0.421000
   312   C1   -2.160    0.099   -0.137   Cg    16      0hB   0.381000
   313   H1   -2.273    1.123   -0.495   H2    16      0hB   0.000000
   314   C2   -1.405   -0.737   -1.190   Cg    16      0hB   0.243000
   315   H2   -1.952   -0.740   -2.133   H1    16      0hB   0.000000
   316   C3    0.000   -0.136   -1.392   Cg    16      0hB   0.182000
   317   H3   -0.117    0.855   -1.835   H1    16      0hB   0.000000
   318   C4    0.789   -0.008   -0.072   Cg    16      0hB   0.388000
   319   H4    1.084   -0.998    0.283   H1    16      0hB   0.000000
   320   C5   -0.025    0.718    1.025   Cg    16      0hB   0.172000
   321   H5   -0.138    1.770    0.752   H1    16      0hB   0.000000
   322  C6M    0.596    0.643    2.421   Cg    16      0hB   0.039000
   323  H3M    1.581    1.113    2.445   Hc    16      0hB   0.000000
   324  H2M    0.716   -0.388    2.755   Hc    16      0hB   0.000000
   325  H1M   -0.022    1.158    3.158   Hc    16      0hB   0.000000
   326   O5   -1.380    0.123    1.119   Os    16      0hB  -0.427000
   327   O4    1.967    0.774   -0.330   Oh    16      0hB  -0.728000
   328  H4O    2.476    0.862    0.479   Ho    16      0hB   0.432000
   329   O3    0.736   -0.953   -2.322   Oh    16      0hB  -0.665000
   330  H3O    1.602   -0.566   -2.472   Ho    16      0hB   0.418000
   331   O2   -1.281   -2.095   -0.708   Oh    16      0hB  -0.673000
   332  H2O   -0.794   -2.618   -1.349   Ho    16      0hB   0.432000
   333   C2   -0.524   -1.033    0.888   Cg    17      0jA   0.114000
   334   O6   -0.422   -1.627   -0.466   Os    17      0jA  -0.504000
   335   C6    0.778   -1.318   -1.291   Cg    17      0jA   0.368000
   336  H6A    1.638   -1.834   -0.861   H1    17      0jA   0.000000
   337  H6E    0.625   -1.706   -2.298   H1    17      0jA   0.000000
   338   C5    1.048    0.198   -1.346   Cg    17      0jA   0.273000
   339   H5    0.266    0.683   -1.933   H1    17      0jA   0.000000
   340   O5    2.326    0.420   -2.000   Oh    17      0jA  -0.699000
   341  H5O    2.505    1.368   -1.996   Ho    17      0jA   0.419000
   342   C4    1.083    0.795    0.081   Cg    17      0jA   0.281000
   343   H4    1.919    0.355    0.626   H1    17      0jA   0.000000
   344   O4    1.300    2.238    0.025   Oh    17      0jA  -0.672000
   345  H4O    1.693    2.535    0.854   Ho    17      0jA   0.413000
   346   C3   -0.229    0.499    0.850   Cg    17      0jA   0.271000
   347   H3   -0.137    0.877    1.870   H1    17      0jA   0.000000
   348   O3   -1.328    1.208    0.204   Oh    17      0jA  -0.654000
   349  H3O   -1.019    2.100   -0.002   Ho    17      0jA   0.425000
   350   C1   -1.900   -1.387    1.537   Cg    17      0jA   0.410000
   351  H11   -2.009   -2.468    1.633   H1    17      0jA   0.000000
   352  H12   -1.959   -0.953    2.536   H1    17      0jA   0.000000
   353   O1   -2.992   -0.883    0.751   Oh    17      0jA  -0.656000
   354  H1O   -2.661   -0.069    0.340   Ho    17      0jA   0.405000
   355   C2   -1.247   -0.744    0.627   Cg    18      0jB   0.413000
   356   C1   -0.420   -1.255    1.853   Cg    18      0jB   0.280000
   357  H11    0.591   -0.852    1.825   H1    18      0jB   0.000000
   358  H12   -0.881   -0.910    2.780   H1    18      0jB   0.000000
   359   O1   -0.315   -2.695    1.896   Oh    18      0jB  -0.722000
   360  H1O   -1.178   -3.059    1.664   Ho    18      0jB   0.432000
   361   C3   -1.114    0.808    0.437   Cg    18      0jB   0.363000
   362   H3   -1.301    1.314    1.386   H1    18      0jB   0.000000
   363   C4    0.303    1.176   -0.077   Cg    18      0jB   0.155000
   364   H4    1.026    0.924    0.698   H1    18      0jB   0.000000
   365   C5    0.673    0.396   -1.364   Cg    18      0jB   0.374000
   366   H5    0.056    0.745   -2.193   H1    18      0jB   0.000000
   367   C6    0.469   -1.129   -1.193   Cg    18      0jB   0.292000
   368  H6A    1.227   -1.534   -0.521   H1    18      0jB   0.000000
   369  H6E    0.574   -1.628   -2.156   H1    18      0jB   0.000000
   370   O6   -0.872   -1.428   -0.635   Os    18      0jB  -0.551000
   371   O5    2.069    0.662   -1.676   Oh    18      0jB  -0.729000
   372  H5O    2.652    0.250   -1.032   Ho    18      0jB   0.426000
   373   O4    0.395    2.615   -0.295   Oh    18      0jB  -0.684000
   374  H4O    1.217    2.813   -0.767   Ho    18      0jB   0.438000
   375   O3   -2.076    1.303   -0.545   Oh    18      0jB  -0.725000
   376  H3O   -1.847    2.227   -0.713   Ho    18      0jB   0.432000
   377   C1   -0.541   -1.656    0.879   Cg    19      0kA   0.473000
   378   H1   -1.331   -2.189    1.407   H2    19      0kA   0.000000
   379   O5   -1.142   -0.956   -0.280   Os    19      0kA  -0.540000
   380   C5   -0.265   -0.033   -1.052   Cg    19      0kA   0.301000
   381   H5    0.566   -0.615   -1.456   H1    19      0kA   0.000000
   382   C6   -1.061    0.528   -2.239   Cg    19      0kA   0.287000
   383  H61   -1.975    1.017   -1.899   H1    19      0kA   0.000000
   384  H62   -0.461    1.257   -2.785   H1    19      0kA   0.000000
   385   O6   -1.399   -0.550   -3.122   Oh    19      0kA  -0.691000
   386  H6O   -0.596   -0.973   -3.433   Ho    19      0kA   0.422000
   387   C4    0.336    1.037   -0.107   Cg    19      0kA   0.196000
   388   H4    1.065    1.635   -0.656   H1    19      0kA   0.000000
   389   O4   -0.710    1.918    0.343   Oh    19      0kA  -0.712000
   390  H4O   -1.130    2.330   -0.415   Ho    19      0kA   0.420000
   391   C3    0.998    0.432    1.146   Cg    19      0kA   0.354000
   392   H3    1.254    1.221    1.854   H1    19      0kA   0.000000
   393   O3    2.219   -0.201    0.720   Oh    19      0kA  -0.744000
   394  H3O    2.666   -0.579    1.481   Ho    19      0kA   0.436000
   395   C2    0.071   -0.600    1.824   Cg    19      0kA   0.281000
   396   H2   -0.767   -0.040    2.243   H1    19      0kA   0.000000
   397   O2    0.733   -1.231    2.935   Oh    19      0kA  -0.716000
   398  H2O    1.470   -1.754    2.612   Ho    19      0kA   0.427000
   399   C1   -1.323   -0.400    1.273   Cg    20      0kB   0.449000
   400   H1   -0.741   -0.831    2.089   H2    20      0kB   0.000000
   401   C2   -1.018    1.118    1.103   Cg    20      0kB   0.308000
   402   H2   -1.709    1.537    0.370   H1    20      0kB   0.000000
   403   C3    0.426    1.324    0.590   Cg    20      0kB   0.253000
   404   H3    0.588    2.384    0.389   H1    20      0kB   0.000000
   405   C4    0.706    0.510   -0.693   Cg    20      0kB   0.217000
   406   H4    1.765    0.587   -0.947   H1    20      0kB   0.000000
   407   C5    0.344   -0.987   -0.496   Cg    20      0kB   0.303000
   408   H5    1.030   -1.402    0.245   H1    20      0kB   0.000000
   409   C6    0.492   -1.818   -1.786   Cg    20      0kB   0.259000
   410  H61    1.491   -1.689   -2.202   H1    20      0kB   0.000000
   411  H62   -0.234   -1.497   -2.533   H1    20      0kB   0.000000
   412   O6    0.284   -3.216   -1.503   Oh    20      0kB  -0.670000
   413  H6O   -0.590   -3.318   -1.114   Ho    20      0kB   0.416000
   414   O5   -1.050   -1.134    0.035   Os    20      0kB  -0.514000
   415   O4   -0.054    1.090   -1.790   Oh    20      0kB  -0.700000
   416  H4O    0.350    1.916   -2.078   Ho    20      0kB   0.425000
   417   O3    1.383    0.911    1.601   Oh    20      0kB  -0.710000
   418  H3O    1.153    1.372    2.420   Ho    20      0kB   0.442000
   419   O2   -1.196    1.850    2.356   Oh    20      0kB  -0.710000
   420  H2O   -2.095    1.693    2.670   Ho    20      0kB   0.426000
   421   C1   -0.573   -1.700    0.814   Cg    21      0lA   0.465000
   422   H1   -1.388   -2.215    1.323   H2    21      0lA   0.000000
   423   O5   -1.126   -0.992   -0.364   Os    21      0lA  -0.527000
   424   C5   -0.198   -0.102   -1.117   Cg    21      0lA   0.216000
   425   H5    0.639   -0.704   -1.477   H1    21      0lA   0.000000
   426   C6   -0.932    0.459   -2.342   Cg    21      0lA   0.308000
   427  H61   -1.849    0.971   -2.046   H1    21      0lA   0.000000
   428  H62   -0.295    1.168   -2.872   H1    21      0lA   0.000000
   429   O6   -1.256   -0.624   -3.224   Oh    21      0lA  -0.684000
   430  H6O   -0.450   -1.068   -3.496   Ho    21      0lA   0.418000
   431   C4    0.376    0.964   -0.158   Cg    21      0lA   0.204000
   432   H4    1.117    1.570   -0.683   H1    21      0lA   0.000000
   433   O4   -0.705    1.820    0.272   Oh    21      0lA  -0.673000
   434  H4O   -1.109    2.234   -0.494   Ho    21      0lA   0.436000
   435   C3    1.028    0.290    1.069   Cg    21      0lA   0.253000
   436   H3    1.900   -0.273    0.733   H1    21      0lA   0.000000
   437   O3    1.478    1.307    1.983   Oh    21      0lA  -0.701000
   438  H3O    1.893    0.893    2.743   Ho    21      0lA   0.433000
   439   C2    0.051   -0.665    1.781   Cg    21      0lA   0.339000
   440   H2   -0.760   -0.082    2.219   H1    21      0lA   0.000000
   441   O2    0.726   -1.355    2.850   Oh    21      0lA  -0.724000
   442  H2O    1.432   -1.894    2.486   Ho    21      0lA   0.431000
   443   C1   -1.300   -0.393    1.340   Cg    22      0lB   0.374000
   444   H1   -0.729   -0.791    2.179   H2    22      0lB   0.000000
   445   C2   -0.949    1.107    1.105   Cg    22      0lB   0.357000
   446   H2   -1.651    1.540    0.388   H1    22      0lB   0.000000
   447   C3    0.495    1.238    0.565   Cg    22      0lB   0.259000
   448   H3    1.189    0.915    1.343   H1    22      0lB   0.000000
   449   C4    0.734    0.361   -0.686   Cg    22      0lB   0.203000
   450   H4    1.783    0.426   -0.976   H1    22      0lB   0.000000
   451   C5    0.374   -1.113   -0.391   Cg    22      0lB   0.140000
   452   H5    1.060   -1.473    0.379   H1    22      0lB   0.000000
   453   C6    0.518   -2.028   -1.620   Cg    22      0lB   0.319000
   454  H61    1.515   -1.932   -2.050   H1    22      0lB   0.000000
   455  H62   -0.216   -1.768   -2.385   H1    22      0lB   0.000000
   456   O6    0.314   -3.391   -1.215   Oh    22      0lB  -0.693000
   457  H6O   -0.561   -3.454   -0.822   Ho    22      0lB   0.419000
   458   O5   -1.017   -1.204    0.149   Os    22      0lB  -0.402000
   459   O4   -0.076    0.849   -1.784   Oh    22      0lB  -0.664000
   460  H4O    0.094    1.797   -1.864   Ho    22      0lB   0.437000
   461   O3    0.803    2.622    0.242   Oh    22      0lB  -0.694000
   462  H3O    0.599    3.154    1.024   Ho    22      0lB   0.433000
   463   O2   -1.047    1.842    2.361   Oh    22      0lB  -0.726000
   464  H2O   -1.931    1.695    2.719   Ho    22      0lB   0.432000
   465   C1   -0.858   -0.731    1.821   Cg    23      0mA   0.433000
   466   H1   -1.791   -0.910    2.355   H2    23      0mA   0.000000
   467   O5   -0.940   -1.366    0.498   Os    23      0mA  -0.507000
   468   C5    0.135   -1.072   -0.502   Cg    23      0mA   0.276000
   469   H5    1.064   -1.517   -0.141   H1    23      0mA   0.000000
   470   C6   -0.229   -1.724   -1.853   Cg    23      0mA   0.266000
   471  H61   -1.249   -1.456   -2.135   H1    23      0mA   0.000000
   472  H62    0.440   -1.374   -2.640   H1    23      0mA   0.000000
   473   O6   -0.119   -3.161   -1.779   Oh    23      0mA  -0.688000
   474  H6O    0.806   -3.418   -1.753   Ho    23      0mA   0.422000
   475   C4    0.348    0.454   -0.630   Cg    23      0mA   0.326000
   476   H4   -0.519    0.912   -1.108   H1    23      0mA   0.000000
   477   O4    1.520    0.696   -1.451   Oh    23      0mA  -0.733000
   478  H4O    1.694    1.646   -1.431   Ho    23      0mA   0.438000
   479   C3    0.577    1.091    0.764   Cg    23      0mA   0.252000
   480   H3    1.488    0.671    1.195   H1    23      0mA   0.000000
   481   O3    0.769    2.535    0.650   Oh    23      0mA  -0.696000
   482  H3O    1.188    2.871    1.450   Ho    23      0mA   0.431000
   483   C2   -0.599    0.799    1.723   Cg    23      0mA   0.245000
   484   H2   -0.360    1.190    2.713   H1    23      0mA   0.000000
   485   O2   -1.800    1.479    1.250   Oh    23      0mA  -0.717000
   486  H2O   -1.567    2.383    1.006   Ho    23      0mA   0.446000
   487   C1   -1.396   -0.372    1.486   Cg    24      0mB   0.314000
   488   H1   -0.762   -0.673    2.322   H2    24      0mB   0.000000
   489   C2   -1.171    1.131    1.158   Cg    24      0mB   0.241000
   490   H2   -1.390    1.738    2.038   H1    24      0mB   0.000000
   491   C3    0.313    1.296    0.755   Cg    24      0mB   0.263000
   492   H3    0.928    0.947    1.587   H1    24      0mB   0.000000
   493   C4    0.639    0.436   -0.496   Cg    24      0mB   0.349000
   494   H4    0.064    0.791   -1.353   H1    24      0mB   0.000000
   495   C5    0.315   -1.055   -0.227   Cg    24      0mB   0.206000
   496   H5    1.014   -1.436    0.521   H1    24      0mB   0.000000
   497   C6    0.444   -1.909   -1.501   Cg    24      0mB   0.273000
   498  H61    1.457   -1.851   -1.899   H1    24      0mB   0.000000
   499  H62   -0.247   -1.553   -2.266   H1    24      0mB   0.000000
   500   O6    0.142   -3.283   -1.200   Oh    24      0mB  -0.680000
   501  H6O   -0.735   -3.322   -0.806   Ho    24      0mB   0.419000
   502   O5   -1.071   -1.209    0.322   Os    24      0mB  -0.393000
   503   O4    2.052    0.548   -0.810   Oh    24      0mB  -0.746000
   504  H4O    2.195    1.377   -1.278   Ho    24      0mB   0.443000
   505   O3    0.638    2.702    0.551   Oh    24      0mB  -0.692000
   506  H3O    1.579    2.841    0.698   Ho    24      0mB   0.430000
   507   O2   -2.052    1.535    0.068   Oh    24      0mB  -0.664000
   508  H2O   -2.955    1.322    0.330   Ho    24      0mB   0.431000
   509   C1   -0.614   -1.730    0.901   Cg    25      0nA   0.478000
   510   H1   -1.404   -2.314    1.374   H2    25      0nA   0.000000
   511   O5   -1.174   -1.068   -0.298   Os    25      0nA  -0.611000
   512   C5   -0.347   -0.048   -1.000   Cg    25      0nA   0.404000
   513   H5    0.541   -0.538   -1.405   H1    25      0nA   0.000000
   514   C6   -1.182    0.512   -2.159   Cg    25      0nA   0.280000
   515  H61   -2.126    0.919   -1.793   H1    25      0nA   0.000000
   516  H62   -0.641    1.307   -2.672   H1    25      0nA   0.000000
   517   O6   -1.449   -0.542   -3.094   Oh    25      0nA  -0.663000
   518  H6O   -0.620   -0.890   -3.430   Ho    25      0nA   0.396000
   519   C4    0.090    1.022    0.026   Cg    25      0nA   0.167000
   520   H4   -0.796    1.567    0.354   H1    25      0nA   0.000000
   521   O4    0.975    1.964   -0.605   Oh    25      0nA  -0.733000
   522  H4O    1.762    1.508   -0.911   Ho    25      0nA   0.444000
   523   C3    0.780    0.436    1.276   Cg    25      0nA   0.330000
   524   H3    0.966    1.226    2.005   H1    25      0nA   0.000000
   525   O3    2.042   -0.161    0.903   Oh    25      0nA  -0.714000
   526  H3O    2.632    0.519    0.572   Ho    25      0nA   0.441000
   527   C2   -0.140   -0.638    1.887   Cg    25      0nA   0.228000
   528   H2   -1.037   -0.125    2.237   H1    25      0nA   0.000000
   529   O2    0.471   -1.232    3.047   Oh    25      0nA  -0.668000
   530  H2O    1.270   -1.695    2.784   Ho    25      0nA   0.415000
   531   C1   -1.423   -0.323    1.216   Cg    26      0nB   0.422000
   532   H1   -0.841   -0.728    2.047   H2    26      0nB   0.000000
   533   C2   -1.120    1.190    1.002   Cg    26      0nB   0.301000
   534   H2   -1.820    1.591    0.265   H1    26      0nB   0.000000
   535   C3    0.314    1.392    0.464   Cg    26      0nB   0.234000
   536   H3    0.472    2.449    0.241   H1    26      0nB   0.000000
   537   C4    0.518    0.553   -0.818   Cg    26      0nB   0.286000
   538   H4   -0.178    0.905   -1.581   H1    26      0nB   0.000000
   539   C5    0.249   -0.948   -0.557   Cg    26      0nB   0.198000
   540   H5    0.960   -1.316    0.184   H1    26      0nB   0.000000
   541   C6    0.389   -1.808   -1.828   Cg    26      0nB   0.313000
   542  H61    1.402   -1.747   -2.225   H1    26      0nB   0.000000
   543  H62   -0.306   -1.465   -2.595   H1    26      0nB   0.000000
   544   O6    0.096   -3.178   -1.506   Oh    26      0nB  -0.689000
   545  H6O   -0.720   -3.190   -0.995   Ho    26      0nB   0.418000
   546   O5   -1.136   -1.094   -0.002   Os    26      0nB  -0.507000
   547   O4    1.861    0.752   -1.320   Oh    26      0nB  -0.707000
   548  H4O    2.459    0.797   -0.563   Ho    26      0nB   0.430000
   549   O3    1.278    0.983    1.478   Oh    26      0nB  -0.615000
   550  H3O    1.016    1.395    2.313   Ho    26      0nB   0.389000
   551   O2   -1.281    1.953    2.234   Oh    26      0nB  -0.703000
   552  H2O   -2.187    1.836    2.548   Ho    26      0nB   0.424000
   553   C1   -0.575   -0.850    1.630   Cg    27      0oA   0.305000
   554   H1   -1.459   -1.028    2.242   H2    27      0oA   0.000000
   555   O5   -0.749   -1.539    0.342   Os    27      0oA  -0.424000
   556   C5    0.226   -1.225   -0.774   Cg    27      0oA   0.054000
   557   H5    1.212   -1.579   -0.466   H1    27      0oA   0.000000
   558   C6   -0.086   -1.847   -2.177    C    27      0oA   0.896000
   559  O6B   -1.246   -1.694   -2.630   O2    27      0oA  -0.822000
   560  O6A    0.878   -2.367   -2.785   O2    27      0oA  -0.822000
   561   C4    0.287    0.300   -0.975   Cg    27      0oA   0.267000
   562   H4    1.027    0.539   -1.739   H1    27      0oA   0.000000
   563   O4   -1.023    0.735   -1.436   Oh    27      0oA  -0.704000
   564  H4O   -1.375    0.015   -2.002   Ho    27      0oA   0.429000
   565   C3    0.680    0.989    0.359   Cg    27      0oA   0.251000
   566   H3    1.634    0.571    0.686   H1    27      0oA   0.000000
   567   O3    0.888    2.424    0.188   Oh    27      0oA  -0.725000
   568  H3O    0.770    2.835    1.051   Ho    27      0oA   0.416000
   569   C2   -0.378    0.691    1.449   Cg    27      0oA   0.413000
   570   H2   -1.331    1.138    1.160   H1    27      0oA   0.000000
   571   O2    0.031    1.279    2.725   Oh    27      0oA  -0.771000
   572  H2O    0.588    0.614    3.151   Ho    27      0oA   0.431000
   573   C1   -1.359   -0.698    1.292   Cg    28      0oB   0.301000
   574   H1   -0.775   -1.079    2.131   H2    28      0oB   0.000000
   575   C2   -1.050    0.812    1.057   Cg    28      0oB   0.383000
   576   H2   -1.795    1.238    0.383   H1    28      0oB   0.000000
   577   C3    0.367    1.002    0.450   Cg    28      0oB   0.259000
   578   H3    1.103    0.708    1.202   H1    28      0oB   0.000000
   579   C4    0.578    0.114   -0.800   Cg    28      0oB   0.260000
   580   H4    1.605    0.241   -1.145   H1    28      0oB   0.000000
   581   C5    0.316   -1.366   -0.472   Cg    28      0oB   0.049000
   582   H5    1.016   -1.649    0.318   H1    28      0oB   0.000000
   583   C6    0.712   -2.274   -1.695    C    28      0oB   0.838000
   584  O6A   -0.059   -3.205   -2.028   O2    28      0oB  -0.794000
   585  O6B    1.845   -2.067   -2.197   O2    28      0oB  -0.794000
   586   O5   -1.065   -1.508    0.111   Os    28      0oB  -0.414000
   587   O4   -0.318    0.545   -1.855   Oh    28      0oB  -0.661000
   588  H4O   -0.199    1.492   -1.967   Ho    28      0oB   0.402000
   589   O3    0.639    2.396    0.087   Oh    28      0oB  -0.708000
   590  H3O    1.590    2.536    0.072   Ho    28      0oB   0.404000
   591   O2   -1.142    1.487    2.349   Oh    28      0oB  -0.732000
   592  H2O   -2.010    1.275    2.706   Ho    28      0oB   0.401000
   593   C2   -0.643   -1.137    0.027   Cg    29      0pA   0.417000
   594   O6   -0.941   -0.508   -1.288   Os    29      0pA  -0.598000
   595   C6    0.136    0.252   -1.965   Cg    29      0pA   0.393000
   596  H6A    0.932   -0.435   -2.257   H1    29      0pA   0.000000
   597  H6E   -0.265    0.713   -2.867   H1    29      0pA   0.000000
   598   C5    0.670    1.327   -1.006   Cg    29      0pA   0.153000
   599   H5   -0.128    2.046   -0.819   H1    29      0pA   0.000000
   600   O5    1.750    2.026   -1.647   Oh    29      0pA  -0.693000
   601  H5O    2.074    2.717   -1.064   Ho    29      0pA   0.428000
   602   C4    1.139    0.755    0.346   Cg    29      0pA   0.394000
   603   H4    1.423    1.567    1.016   H1    29      0pA   0.000000
   604   O4    2.283   -0.104    0.142   Oh    29      0pA  -0.702000
   605  H4O    2.564   -0.467    0.984   Ho    29      0pA   0.432000
   606   C3   -0.019   -0.059    0.961   Cg    29      0pA   0.150000
   607   H3   -0.805    0.662    1.192   H1    29      0pA   0.000000
   608   O3    0.391   -0.631    2.219   Oh    29      0pA  -0.665000
   609  H3O    1.082   -1.280    2.064   Ho    29      0pA   0.409000
   610   C1   -1.945   -1.775    0.549   Cg    29      0pA   0.327000
   611  H11   -2.310   -2.526   -0.154   H1    29      0pA   0.000000
   612  H12   -1.775   -2.264    1.509   H1    29      0pA   0.000000
   613   O1   -2.957   -0.769    0.714   Oh    29      0pA  -0.644000
   614  H1O   -2.655   -0.112    1.345   Ho    29      0pA   0.393000
   615   C2   -1.294   -0.539    0.325   Cg    30      0pB   0.407000
   616   C1   -0.618   -1.204    1.579   Cg    30      0pB   0.379000
   617  H11    0.462   -1.082    1.537   H1    30      0pB   0.000000
   618  H12   -0.969   -0.722    2.492   H1    30      0pB   0.000000
   619   O1   -0.894   -2.627    1.676   Oh    30      0pB  -0.720000
   620  H1O   -0.446   -2.987    2.447   Ho    30      0pB   0.410000
   621   C3   -1.007    0.986    0.147   Cg    30      0pB   0.180000
   622   H3   -1.730    1.381   -0.570   H1    30      0pB   0.000000
   623   C4    0.392    1.279   -0.448   Cg    30      0pB   0.328000
   624   H4    0.457    2.338   -0.699   H1    30      0pB   0.000000
   625   C5    0.657    0.441   -1.720   Cg    30      0pB   0.188000
   626   H5   -0.038    0.761   -2.497   H1    30      0pB   0.000000
   627   C6    0.423   -1.058   -1.457   Cg    30      0pB   0.364000
   628  H6A    1.149   -1.446   -0.740   H1    30      0pB   0.000000
   629  H6E    0.527   -1.622   -2.384   H1    30      0pB   0.000000
   630   O6   -0.949   -1.247   -0.927   Os    30      0pB  -0.540000
   631   O5    2.007    0.671   -2.211   Oh    30      0pB  -0.705000
   632  H5O    2.598    0.757   -1.450   Ho    30      0pB   0.433000
   633   O4    1.408    0.986    0.548   Oh    30      0pB  -0.698000
   634  H4O    1.182    1.514    1.326   Ho    30      0pB   0.427000
   635   O3   -1.191    1.730    1.391   Oh    30      0pB  -0.681000
   636  H3O   -2.126    1.690    1.634   Ho    30      0pB   0.422000
   637   C1   -0.448   -1.084   -1.709   Cg    31      0qA   0.465000
   638   H1   -0.121   -1.472   -2.674   H1    31      0qA   0.000000
   639   O5    0.498   -1.529   -0.680   Os    31      0qA  -0.559000
   640   C5    0.297   -1.013    0.700   Cg    31      0qA   0.234000
   641   H5   -0.651   -1.402    1.076   H1    31      0qA   0.000000
   642   C6    1.426   -1.586    1.560   Cg    31      0qA   0.060000
   643  H61    1.436   -2.676    1.525   Hc    31      0qA   0.000000
   644  H62    1.316   -1.300    2.607   Hc    31      0qA   0.000000
   645  H63    2.405   -1.238    1.225   Hc    31      0qA   0.000000
   646   C4    0.236    0.532    0.686   Cg    31      0qA   0.208000
   647   H4    1.227    0.926    0.450   H1    31      0qA   0.000000
   648   O4   -0.149    1.001    2.009   Oh    31      0qA  -0.664000
   649  H4O    0.597    0.943    2.615   Ho    31      0qA   0.403000
   650   C3   -0.781    1.060   -0.358   Cg    31      0qA   0.312000
   651   H3   -1.794    0.809   -0.038   H1    31      0qA   0.000000
   652   O3   -0.649    2.505   -0.393   Oh    31      0qA  -0.697000
   653  H3O   -0.792    2.831    0.502   Ho    31      0qA   0.424000
   654   C2   -0.530    0.469   -1.769   Cg    31      0qA   0.281000
   655   H2    0.431    0.838   -2.130   H1    31      0qA   0.000000
   656   O2   -1.553    0.879   -2.731   Oh    31      0qA  -0.695000
   657  H2O   -2.402    0.506   -2.473   Ho    31      0qA   0.422000
   658   C1   -1.318   -0.641    1.328   Cg    32      0qB   0.391000
   659   H1   -0.666   -1.057    2.097   H1    32      0qB   0.000000
   660   C2   -1.057    0.878    1.129   Cg    32      0qB   0.323000
   661   H2   -1.818    1.291    0.463   H1    32      0qB   0.000000
   662   C3    0.342    1.095    0.509   Cg    32      0qB   0.300000
   663   H3    1.100    0.829    1.249   H1    32      0qB   0.000000
   664   C4    0.564    0.247   -0.768   Cg    32      0qB   0.250000
   665   H4   -0.075    0.624   -1.568   H1    32      0qB   0.000000
   666   C5    0.240   -1.246   -0.518   Cg    32      0qB   0.271000
   667   H5    0.961   -1.658    0.192   H1    32      0qB   0.000000
   668   C6    0.258   -2.109   -1.782   Cg    32      0qB   0.048000
   669  H61   -0.002   -3.144   -1.558   Hc    32      0qB   0.000000
   670  H62    1.246   -2.119   -2.245   Hc    32      0qB   0.000000
   671  H63   -0.451   -1.746   -2.528   Hc    32      0qB   0.000000
   672   O5   -1.118   -1.363    0.074   Os    32      0qB  -0.535000
   673   O4    1.950    0.364   -1.182   Oh    32      0qB  -0.713000
   674  H4O    2.156    1.304   -1.257   Ho    32      0qB   0.421000
   675   O3    0.502    2.500    0.172   Oh    32      0qB  -0.689000
   676  H3O    0.286    3.013    0.961   Ho    32      0qB   0.420000
   677   O2   -1.127    1.577    2.410   Oh    32      0qB  -0.713000
   678  H2O   -1.974    1.362    2.821   Ho    32      0qB   0.420000
   679   C1   -1.204   -1.485    0.207   Cg    33      0rA   0.488000
   680   H1   -2.146   -1.893    0.575   H2    33      0rA   0.000000
   681   O5   -1.453   -0.835   -1.102   Os    33      0rA  -0.561000
   682   C5   -0.360   -0.023   -1.689   Cg    33      0rA   0.377000
   683  H5A    0.472   -0.677   -1.951   H1    33      0rA   0.000000
   684  H5E   -0.721    0.453   -2.601   H1    33      0rA   0.000000
   685   C4    0.084    1.040   -0.671   Cg    33      0rA   0.122000
   686   H4   -0.743    1.737   -0.522   H1    33      0rA   0.000000
   687   O4    1.186    1.779   -1.223   Oh    33      0rA  -0.663000
   688  H4O    1.922    1.183   -1.382   Ho    33      0rA   0.419000
   689   C3    0.474    0.449    0.698   Cg    33      0rA   0.345000
   690   H3    0.681    1.252    1.408   H1    33      0rA   0.000000
   691   O3    1.657   -0.368    0.558   Oh    33      0rA  -0.737000
   692  H3O    2.392    0.180    0.273   Ho    33      0rA   0.443000
   693   C2   -0.697   -0.416    1.205   Cg    33      0rA   0.253000
   694   H2   -1.534    0.260    1.386   H1    33      0rA   0.000000
   695   O2   -0.375   -1.016    2.472   Oh    33      0rA  -0.711000
   696  H2O    0.363   -1.620    2.360   Ho    33      0rA   0.419000
   697   C1   -1.521   -0.793    0.838   Cg    34      0rB   0.481000
   698   H1   -1.015   -1.192    1.717   H2    34      0rB   0.000000
   699   C2   -1.150    0.704    0.587   Cg    34      0rB   0.385000
   700   H2   -1.735    1.061   -0.264   H1    34      0rB   0.000000
   701   C3    0.351    0.804    0.213   Cg    34      0rB   0.203000
   702   H3    0.612    1.843    0.010   H1    34      0rB   0.000000
   703   C4    0.603   -0.053   -1.052   Cg    34      0rB   0.236000
   704   H4   -0.008    0.334   -1.868   H1    34      0rB   0.000000
   705   C5    0.214   -1.531   -0.804   Cg    34      0rB   0.335000
   706  H5A    0.866   -1.983   -0.055   H1    34      0rB   0.000000
   707  H5E    0.315   -2.103   -1.727   H1    34      0rB   0.000000
   708   O5   -1.197   -1.613   -0.339   Os    34      0rB  -0.576000
   709   O4    1.995    0.046   -1.458   Oh    34      0rB  -0.695000
   710  H4O    2.174    0.915   -1.832   Ho    34      0rB   0.411000
   711   O3    1.199    0.305    1.292   Oh    34      0rB  -0.696000
   712  H3O    2.119    0.323    1.002   Ho    34      0rB   0.428000
   713   O2   -1.468    1.574    1.714   Oh    34      0rB  -0.732000
   714  H2O   -2.354    1.360    2.026   Ho    34      0rB   0.414000
   715   C2   -2.722   -0.330   -1.000   Cy    35      0sA   0.237000
   716   O6   -1.860   -0.612    0.110   Oy    35      0sA  -0.403000
   717   C6   -0.489   -0.198   -0.051   Cg    35      0sA   0.220000
   718   H6   -0.129   -0.519   -1.029   H1    35      0sA   0.000000
   719   C7    0.401   -0.949    0.961   Cg    35      0sA   0.111000
   720   H7    1.441   -0.771    0.687   H1    35      0sA   0.000000
   721   O7    0.211   -0.402    2.302   Oh    35      0sA  -0.721000
   722  H7O    0.571    0.505    2.346   Ho    35      0sA   0.435000
   723   C8    0.156   -2.485    0.932   Cg    35      0sA   0.492000
   724   H8   -0.872   -2.705    1.222   H1    35      0sA   0.000000
   725   O8    0.380   -2.978   -0.424   Oh    35      0sA  -0.739000
   726  H8O   -0.357   -2.700   -1.013   Ho    35      0sA   0.412000
   727   C9    1.120   -3.255    1.873   Cg    35      0sA   0.178000
   728  H9R    2.152   -3.109    1.549   H1    35      0sA   0.000000
   729  H9S    1.034   -2.876    2.891   H1    35      0sA   0.000000
   730   O9    0.833   -4.675    1.890   Oh    35      0sA  -0.689000
   731  H9O    0.771   -4.962    0.970   Ho    35      0sA   0.408000
   732   C5   -0.458    1.346   -0.071   Cg    35      0sA   0.308000
   733   H5   -0.827    1.714    0.888   H1    35      0sA   0.000000
   734   N5    0.926    1.841   -0.280   Ng    35      0sA  -0.629000
   735  H5N    1.282    1.841   -1.222    H    35      0sA   0.280000
   736  C5N    1.754    2.164    0.719    C    35      0sA   0.632000
   737  O5N    1.427    2.060    1.898    O    35      0sA  -0.593000
   738  CME    3.157    2.654    0.311   Cg    35      0sA  -0.003000
   739  H1M    3.834    1.801    0.250   Hc    35      0sA   0.000000
   740  H2M    3.535    3.354    1.058   Hc    35      0sA   0.000000
   741  H3M    3.127    3.159   -0.656   Hc    35      0sA   0.000000
   742   C4   -1.418    1.846   -1.195   Cg    35      0sA   0.332000
   743   H4   -0.980    1.602   -2.163   H1    35      0sA   0.000000
   744   O4   -1.568    3.288   -1.121   Oh    35      0sA  -0.762000
   745  H4O   -0.705    3.700   -1.184   Ho    35      0sA   0.415000
   746   C3   -2.818    1.212   -1.121   Cg    35      0sA   0.006000
   747  H3A   -3.351    1.625   -0.260   Hc    35      0sA   0.000000
   748  H3E   -3.410    1.495   -1.994   Hc    35      0sA   0.000000
   749   C1   -2.213   -1.064   -2.374    C    35      0sA   0.789000
   750  O1B   -2.352   -0.471   -3.471   O2    35      0sA  -0.761000
   751  O1A   -1.585   -2.148   -2.227   O2    35      0sA  -0.761000
   752   C2    0.138   -0.383    2.834   Cy    36      0sB   0.090000
   753   C1    1.106   -0.977    3.993    C    36      0sB   0.979000
   754  O1A    2.341   -0.767    3.933   O2    36      0sB  -0.839000
   755  O1B    0.515   -1.599    4.915   O2    36      0sB  -0.839000
   756   C3    0.318    1.155    2.874   Cg    36      0sB   0.133000
   757  H3A    1.380    1.411    2.830   Hc    36      0sB   0.000000
   758  H3E   -0.038    1.548    3.829   Hc    36      0sB   0.000000
   759   C4   -0.410    1.864    1.719   Cg    36      0sB   0.203000
   760   H4   -1.485    1.720    1.846   H1    36      0sB   0.000000
   761   C5    0.019    1.267    0.348   Cg    36      0sB   0.523000
   762   H5    1.072    1.508    0.188   H1    36      0sB   0.000000
   763   C6   -0.154   -0.264    0.356   Cg    36      0sB  -0.008000
   764   H6   -1.220   -0.466    0.471   H1    36      0sB   0.000000
   765   C7    0.288   -1.027   -0.916   Cg    36      0sB   0.278000
   766   H7   -0.417   -0.776   -1.710   H1    36      0sB   0.000000
   767   C8    0.303   -2.576   -0.765   Cg    36      0sB   0.367000
   768   H8    1.096   -2.868   -0.075   H1    36      0sB   0.000000
   769   C9    0.514   -3.298   -2.117   Cg    36      0sB   0.201000
   770  H9R   -0.291   -3.043   -2.807   H1    36      0sB   0.000000
   771  H9S    1.457   -2.987   -2.567   H1    36      0sB   0.000000
   772   O9    0.541   -4.732   -1.939   Oh    36      0sB  -0.672000
   773  H9O   -0.182   -4.953   -1.339   Ho    36      0sB   0.393000
   774   O8   -0.974   -3.012   -0.207   Oh    36      0sB  -0.704000
   775  H8O   -1.019   -2.672    0.697   Ho    36      0sB   0.392000
   776   O7    1.595   -0.564   -1.337   Oh    36      0sB  -0.656000
   777  H7O    1.527    0.349   -1.670   Ho    36      0sB   0.390000
   778   O6    0.516   -0.816    1.509   Oy    36      0sB  -0.344000
   779   N5   -0.796    1.854   -0.732   Ng    36      0sB  -0.669000
   780  H5N   -1.780    1.955   -0.559    H    36      0sB   0.261000
   781  C5N   -0.302    2.176   -1.926    C    36      0sB   0.678000
   782  CME   -1.268    2.866   -2.910   Cg    36      0sB  -0.005000
   783  H1M   -1.066    2.522   -3.925   Hc    36      0sB   0.000000
   784  H2M   -1.118    3.945   -2.864   Hc    36      0sB   0.000000
   785  H3M   -2.307    2.638   -2.664   Hc    36      0sB   0.000000
   786  O5N    0.862    1.939   -2.228    O    36      0sB  -0.634000
   787   O4   -0.141    3.296    1.801   Oh    36      0sB  -0.714000
   788  H4O   -0.619    3.767    1.113   Ho    36      0sB   0.390000
   789   C1   -0.426   -1.763    0.815   Cg    37      0tA   0.456000
   790   H1   -1.255   -2.273    1.307   H2    37      0tA   0.000000
   791   O5   -0.952   -1.072   -0.390   Os    37      0tA  -0.480000
   792   C5   -0.029   -0.169   -1.129   Cg    37      0tA   0.157000
   793   H5    0.827   -0.759   -1.465   H1    37      0tA   0.000000
   794   C6   -0.749    0.362   -2.376   Cg    37      0tA   0.304000
   795  H61   -1.684    0.854   -2.106   H1    37      0tA   0.000000
   796  H62   -0.118    1.080   -2.900   H1    37      0tA   0.000000
   797   O6   -1.029   -0.737   -3.254   Oh    37      0tA  -0.669000
   798  H6O   -0.206   -1.164   -3.504   Ho    37      0tA   0.401000
   799   C4    0.505    0.920   -0.174   Cg    37      0tA   0.434000
   800   H4    1.263    1.515   -0.686   H1    37      0tA   0.000000
   801   O4   -0.583    1.788    0.206   Oh    37      0tA  -0.731000
   802  H4O   -0.957    2.194   -0.580   Ho    37      0tA   0.417000
   803   C3    1.122    0.259    1.076   Cg    37      0tA   0.124000
   804   H3    1.999   -0.297    0.738   H1    37      0tA   0.000000
   805   O3    1.601    1.257    1.996   Oh    37      0tA  -0.687000
   806  H3O    2.028    0.827    2.741   Ho    37      0tA   0.442000
   807   C2    0.205   -0.755    1.797   Cg    37      0tA   0.245000
   808   H2    0.772   -1.283    2.565   H1    37      0tA   0.000000
   809   O2   -0.888   -0.072    2.439   Oh    37      0tA  -0.655000
   810  H2O   -1.449   -0.712    2.883   Ho    37      0tA   0.436000
   811   C1   -1.183   -1.245    1.019   Cg    38      0tB   0.306000
   812   H1   -0.633   -2.187    1.011   H2    38      0tB   0.000000
   813   C2   -0.457   -0.240    1.939   Cg    38      0tB   0.340000
   814   H2   -0.341   -0.665    2.937   H1    38      0tB   0.000000
   815   C3    0.929    0.082    1.337   Cg    38      0tB   0.174000
   816   H3    1.516   -0.837    1.390   H1    38      0tB   0.000000
   817   C4    0.910    0.515   -0.147   Cg    38      0tB   0.314000
   818   H4    1.932    0.573   -0.524   H1    38      0tB   0.000000
   819   C5    0.106   -0.502   -0.991   Cg    38      0tB   0.031000
   820   H5    0.652   -1.448   -0.969   H1    38      0tB   0.000000
   821   C6   -0.094   -0.115   -2.463   Cg    38      0tB   0.349000
   822  H61    0.865    0.112   -2.928   H1    38      0tB   0.000000
   823  H62   -0.737    0.762   -2.550   H1    38      0tB   0.000000
   824   O6   -0.699   -1.217   -3.153   Oh    38      0tB  -0.666000
   825  H6O   -1.542   -1.425   -2.745   Ho    38      0tB   0.406000
   826   O5   -1.225   -0.722   -0.366   Os    38      0tB  -0.354000
   827   O4    0.300    1.816   -0.278   Oh    38      0tB  -0.626000
   828  H4O    0.298    2.077   -1.202   Ho    38      0tB   0.413000
   829   O3    1.619    1.054    2.143   Oh    38      0tB  -0.678000
   830  H3O    1.135    1.883    2.126   Ho    38      0tB   0.425000
   831   O2   -1.241    0.969    2.033   Oh    38      0tB  -0.637000
   832  H2O   -2.110    0.759    2.383   Ho    38      0tB   0.397000
   833   C1   -1.731   -1.064    0.213   Cg    39      0uA   0.363000
   834   H1   -1.591   -1.559   -0.748   H2    39      0uA   0.000000
   835   O5   -0.693   -1.507    1.145   Os    39      0uA  -0.515000
   836   C5    0.713   -1.105    0.797   Cg    39      0uA   0.232000
   837   H5    1.348   -1.456    1.611   H1    39      0uA   0.000000
   838   C6    1.363   -1.689   -0.533    C    39      0uA   0.697000
   839  O6B    2.518   -1.295   -0.826   O2    39      0uA  -0.757000
   840  O6A    0.675   -2.459   -1.241   O2    39      0uA  -0.757000
   841   C4    0.751    0.435    0.809   Cg    39      0uA   0.223000
   842   H4    0.488    0.777    1.812   H1    39      0uA   0.000000
   843   O4    2.095    0.924    0.510   Oh    39      0uA  -0.711000
   844  H4O    2.532    0.255   -0.064   Ho    39      0uA   0.397000
   845   C3   -0.284    1.008   -0.194   Cg    39      0uA   0.417000
   846   H3    0.027    0.740   -1.206   H1    39      0uA   0.000000
   847   O3   -0.242    2.457   -0.074   Oh    39      0uA  -0.771000
   848  H3O    0.696    2.680   -0.011   Ho    39      0uA   0.417000
   849   C2   -1.729    0.486    0.041   Cg    39      0uA   0.259000
   850   H2   -2.123    0.940    0.953   H1    39      0uA   0.000000
   851   O2   -2.599    0.864   -1.082   Oh    39      0uA  -0.685000
   852  H2O   -2.215    0.570   -1.911   Ho    39      0uA   0.385000
   853   C1    0.624   -1.281    1.472   Cg    40      0uB   0.278000
   854   H1    1.365   -1.749    2.120   H2    40      0uB   0.000000
   855   C2    0.886    0.254    1.429   Cg    40      0uB   0.289000
   856   H2    1.924    0.394    1.125   H1    40      0uB   0.000000
   857   C3   -0.010    0.958    0.385   Cg    40      0uB   0.286000
   858   H3   -1.059    0.873    0.669   H1    40      0uB   0.000000
   859   C4    0.214    0.318   -1.011   Cg    40      0uB   0.308000
   860   H4    1.260    0.472   -1.287   H1    40      0uB   0.000000
   861   C5   -0.045   -1.206   -0.999   Cg    40      0uB   0.194000
   862   H5    0.341   -1.608   -1.936   H1    40      0uB   0.000000
   863   C6   -1.592   -1.534   -1.015    C    40      0uB   0.750000
   864  O6A   -2.021   -2.339   -0.158   O2    40      0uB  -0.783000
   865  O6B   -2.303   -0.945   -1.865   O2    40      0uB  -0.783000
   866   O5    0.777   -1.828    0.108   Os    40      0uB  -0.430000
   867   O4   -0.599    0.994   -2.012   Oh    40      0uB  -0.745000
   868  H4O   -1.414    0.451   -2.132   Ho    40      0uB   0.422000
   869   O3    0.347    2.372    0.322   Oh    40      0uB  -0.755000
   870  H3O   -0.045    2.702   -0.500   Ho    40      0uB   0.421000
   871   O2    0.743    0.882    2.733   Oh    40      0uB  -0.680000
   872  H2O    0.608    1.820    2.553   Ho    40      0uB   0.422000
   873   C1   -0.166   -1.409   -0.598   Cg    41      0vA   0.389000
   874   H1    0.091   -1.745   -1.603   H2    41      0vA   0.000000
   875   O5    0.862   -1.901    0.329   Os    41      0vA  -0.466000
   876   C5    0.851   -1.371    1.729   Cg    41      0vA   0.112000
   877   H5   -0.074   -1.715    2.194   H1    41      0vA   0.000000
   878   C6    2.002   -1.984    2.553   Cg    41      0vA   0.362000
   879  H61    1.937   -1.639    3.585   H1    41      0vA   0.000000
   880  H62    1.925   -3.071    2.555   H1    41      0vA   0.000000
   881   O6    3.278   -1.607    2.017   Oh    41      0vA  -0.711000
   882  H6O    3.155   -0.745    1.585   Ho    41      0vA   0.424000
   883   C4    0.805    0.177    1.733   Cg    41      0vA   0.326000
   884   H4    0.659    0.527    2.756   H1    41      0vA   0.000000
   885   O4    2.058    0.717    1.242   Oh    41      0vA  -0.701000
   886  H4O    1.919    1.666    1.115   Ho    41      0vA   0.442000
   887   C3   -0.349    0.702    0.847   Cg    41      0vA   0.176000
   888   H3   -1.290    0.364    1.285   H1    41      0vA   0.000000
   889   O3   -0.352    2.163    0.885   Oh    41      0vA  -0.678000
   890  H3O   -1.081    2.513    0.360   Ho    41      0vA   0.425000
   891   C2   -0.255    0.153   -0.600   Cg    41      0vA   0.399000
   892   H2    0.668    0.533   -1.043   H1    41      0vA   0.000000
   893   N2   -1.389    0.639   -1.422   Ng    41      0vA  -0.595000
   894  H2N   -2.296    0.673   -0.985    H    41      0vA   0.238000
   895  C2N   -1.314    0.763   -2.750    C    41      0vA   0.625000
   896  O2N   -0.270    0.561   -3.362    O    41      0vA  -0.605000
   897  CME   -2.609    1.183   -3.472   Cg    41      0vA   0.032000
   898  H1M   -2.844    2.221   -3.231   Hc    41      0vA   0.000000
   899  H2M   -2.486    1.089   -4.551   Hc    41      0vA   0.000000
   900  H3M   -3.436    0.544   -3.158   Hc    41      0vA   0.000000
   901   C1   -0.913   -1.218    0.628   Cg    42      0vB   0.305000
   902   H1   -0.293   -1.595    1.442   H2    42      0vB   0.000000
   903   C2   -0.626    0.309    0.415   Cg    42      0vB   0.544000
   904   H2   -1.309    0.676   -0.352   H1    42      0vB   0.000000
   905   C3    0.836    0.479   -0.095   Cg    42      0vB   0.152000
   906   H3    1.511    0.118    0.684   H1    42      0vB   0.000000
   907   C4    1.087   -0.353   -1.371   Cg    42      0vB   0.253000
   908   H4    2.132   -0.251   -1.667   H1    42      0vB   0.000000
   909   C5    0.767   -1.846   -1.139   Cg    42      0vB   0.136000
   910   H5    1.474   -2.223   -0.396   H1    42      0vB   0.000000
   911   C6    0.914   -2.695   -2.414   Cg    42      0vB   0.353000
   912  H61    1.900   -2.545   -2.858   H1    42      0vB   0.000000
   913  H62    0.158   -2.425   -3.151   H1    42      0vB   0.000000
   914   O6    0.766   -4.081   -2.070   Oh    42      0vB  -0.714000
   915  H6O   -0.101   -4.191   -1.668   Ho    42      0vB   0.427000
   916   O5   -0.612   -2.000   -0.582   Os    42      0vB  -0.408000
   917   O4    0.257    0.162   -2.436   Oh    42      0vB  -0.690000
   918  H4O    0.281    1.128   -2.395   Ho    42      0vB   0.440000
   919   O3    1.194    1.870   -0.365   Oh    42      0vB  -0.665000
   920  H3O    2.140    2.016   -0.257   Ho    42      0vB   0.415000
   921   N2   -0.832    1.069    1.669   Ng    42      0vB  -0.686000
   922  H2N   -0.443    0.697    2.518    H    42      0vB   0.254000
   923  C2N   -1.540    2.202    1.720    C    42      0vB   0.586000
   924  CME   -1.651    2.876    3.103   Cg    42      0vB   0.056000
   925  H1M   -0.776    3.505    3.271   Hc    42      0vB   0.000000
   926  H2M   -2.548    3.496    3.144   Hc    42      0vB   0.000000
   927  H3M   -1.711    2.125    3.894   Hc    42      0vB   0.000000
   928  O2N   -2.065    2.693    0.726    O    42      0vB  -0.564000
   929   C1   -1.165   -1.393   -0.842   Cg    43      0wA   0.462100
   930   H1   -0.936   -1.781   -1.835   H2    43      0wA   0.000000
   931   O5   -0.153   -1.888    0.101   Os    43      0wA  -0.541500
   932   C5   -0.190   -1.369    1.503   Cg    43      0wA   0.242100
   933   H5   -1.094   -1.770    1.964   H1    43      0wA   0.000000
   934   C6    1.011   -1.923    2.301   Cg    43      0wA   0.299500
   935  H61    0.861   -1.747    3.367   H1    43      0wA   0.000000
   936  H62    1.085   -3.000    2.150   H1    43      0wA   0.000000
   937   O6    2.255   -1.309    1.905   Oh    43      0wA  -0.661800
   938  H6O    2.363   -0.469    2.359   Ho    43      0wA   0.395900
   939   C4   -0.290    0.175    1.528   Cg    43      0wA   0.321300
   940   H4    0.675    0.603    1.249   H1    43      0wA   0.000000
   941   O4   -0.606    0.599    2.887   Oh    43      0wA  -0.730500
   942  H4O   -1.497    0.328    3.135   Ho    43      0wA   0.442400
   943   C3   -1.364    0.720    0.553   Cg    43      0wA   0.252000
   944   H3   -2.348    0.427    0.924   H1    43      0wA   0.000000
   945   O3   -1.313    2.174    0.538   Oh    43      0wA  -0.698700
   946  H3O   -1.280    2.506    1.443   Ho    43      0wA   0.415900
   947   C2   -1.199    0.160   -0.881   Cg    43      0wA   0.275000
   948   H2   -2.063    0.466   -1.475   H1    43      0wA   0.000000
   949   N2    0.006    0.706   -1.550   Ng    43      0wA  -0.475100
   950  H2N    0.676    1.194   -0.977    H    43      0wA   0.214200
   951  C2N    0.209    0.660   -2.869    C    43      0wA   0.590900
   952  O2N   -0.574    0.101   -3.634    O    43      0wA  -0.575700
   953  CME    1.498    1.335   -3.370   Cg    43      0wA  -0.034000
   954  H1M    1.491    2.393   -3.102   Hc    43      0wA   0.000000
   955  H2M    1.574    1.247   -4.455   Hc    43      0wA   0.000000
   956  H3M    2.367    0.855   -2.916   Hc    43      0wA   0.000000
   957   C1   -0.654   -1.080    1.596   Cg    44      0wB   0.387000
   958   H1   -0.009   -1.420    2.407   H2    44      0wB   0.000000
   959   C2   -0.393    0.425    1.290   Cg    44      0wB   0.294000
   960   H2   -0.503    0.979    2.224   H1    44      0wB   0.000000
   961   C3    1.075    0.575    0.815   Cg    44      0wB   0.217000
   962   H3    1.725    0.302    1.649   H1    44      0wB   0.000000
   963   C4    1.394   -0.348   -0.389   Cg    44      0wB   0.277000
   964   H4    0.845    0.002   -1.266   H1    44      0wB   0.000000
   965   C5    1.013   -1.821   -0.100   Cg    44      0wB   0.321000
   966   H5    1.672   -2.211    0.678   H1    44      0wB   0.000000
   967   C6    1.139   -2.720   -1.347   Cg    44      0wB   0.247000
   968  H61    2.165   -2.718   -1.715   H1    44      0wB   0.000000
   969  H62    0.490   -2.352   -2.142   H1    44      0wB   0.000000
   970   O6    0.763   -4.075   -1.029   Oh    44      0wB  -0.663000
   971  H6O   -0.129   -4.075   -0.669   Ho    44      0wB   0.413000
   972   O5   -0.395   -1.892    0.406   Os    44      0wB  -0.498000
   973   O4    2.812   -0.277   -0.671   Oh    44      0wB  -0.743000
   974  H4O    3.055    0.660   -0.701   Ho    44      0wB   0.439000
   975   O3    1.370    1.958    0.458   Oh    44      0wB  -0.658000
   976  H3O    0.772    2.562    0.931   Ho    44      0wB   0.413000
   977   N2   -1.352    0.981    0.302   Ng    44      0wB  -0.558000
   978  H2N   -1.722    0.350   -0.390    H    44      0wB   0.265000
   979  C2N   -1.771    2.250    0.313    C    44      0wB   0.585000
   980  CME   -2.822    2.644   -0.746   Cg    44      0wB   0.056000
   981  H1M   -2.340    3.229   -1.530   Hc    44      0wB   0.000000
   982  H2M   -3.607    3.245   -0.284   Hc    44      0wB   0.000000
   983  H3M   -3.279    1.761   -1.197   Hc    44      0wB   0.000000
   984  O2N   -1.314    3.067    1.110    O    44      0wB  -0.600000
   985   C1   -0.288   -1.326   -1.347   Cg    45      0xA   0.482000
   986   H1   -0.073   -1.643   -2.367   H2    45      0xA   0.000000
   987   O5    0.719   -1.897   -0.453   Os    45      0xA  -0.588000
   988   C5    0.697   -1.455    0.969   Cg    45      0xA   0.335000
   989  H5A   -0.206   -1.841    1.445   H1    45      0xA   0.000000
   990  H5E    1.556   -1.884    1.485   H1    45      0xA   0.000000
   991   C4    0.735    0.080    1.071   Cg    45      0xA   0.247000
   992   H4    1.713    0.433    0.741   H1    45      0xA   0.000000
   993   O4    0.546    0.457    2.461   Oh    45      0xA  -0.720000
   994  H4O    0.509    1.422    2.506   Ho    45      0xA   0.420000
   995   C3   -0.369    0.712    0.191   Cg    45      0xA   0.359000
   996   H3   -1.351    0.475    0.605   H1    45      0xA   0.000000
   997   O3   -0.197    2.152    0.195   Oh    45      0xA  -0.712000
   998  H3O   -0.732    2.507   -0.527   Ho    45      0xA   0.421000
   999   C2   -0.299    0.224   -1.272   Cg    45      0xA   0.197000
  1000   H2    0.632    0.585   -1.712   H1    45      0xA   0.000000
  1001   O2   -1.406    0.780   -2.052   Oh    45      0xA  -0.656000
  1002  H2O   -2.187    0.221   -1.940   Ho    45      0xA   0.409000
  1003   C1   -1.281   -1.059    0.957   Cg    46      0xB   0.248000
  1004   H1   -0.638   -1.450    1.747   H2    46      0xB   0.000000
  1005   C2   -1.027    0.462    0.742   Cg    46      0xB   0.425000
  1006   H2   -1.795    0.867    0.080   H1    46      0xB   0.000000
  1007   C3    0.371    0.712    0.128   Cg    46      0xB   0.228000
  1008   H3    1.134    0.467    0.870   H1    46      0xB   0.000000
  1009   C4    0.597   -0.154   -1.132   Cg    46      0xB   0.286000
  1010   H4   -0.065    0.182   -1.932   H1    46      0xB   0.000000
  1011   C5    0.327   -1.645   -0.850   Cg    46      0xB   0.303000
  1012  H5A    1.063   -2.041   -0.146   H1    46      0xB   0.000000
  1013  H5E    0.396   -2.221   -1.773   H1    46      0xB   0.000000
  1014   O5   -1.029   -1.810   -0.276   Os    46      0xB  -0.447000
  1015   O4    1.969   -0.011   -1.569   Oh    46      0xB  -0.723000
  1016  H4O    2.152    0.935   -1.638   Ho    46      0xB   0.430000
  1017   O3    0.513    2.118   -0.232   Oh    46      0xB  -0.682000
  1018  H3O    0.338    2.651    0.556   Ho    46      0xB   0.427000
  1019   O2   -1.103    1.142    2.023   Oh    46      0xB  -0.699000
  1020  H2O   -1.921    0.854    2.446   Ho    46      0xB   0.398000
  1021   C1   -0.290   -1.584   -0.784   Cg    47      0yA   0.468000
  1022   H1   -0.031   -1.978   -1.767   H2    47      0yA   0.000000
  1023   O5    0.628   -2.161    0.199   Os    47      0yA  -0.568000
  1024   C5    0.627   -1.592    1.586   Cg    47      0yA   0.246000
  1025   H5   -0.330   -1.858    2.040   H1    47      0yA   0.000000
  1026   C6    1.736   -2.254    2.432   Cg    47      0yA   0.328000
  1027  H61    1.622   -3.338    2.400   H1    47      0yA   0.000000
  1028  H62    1.650   -1.942    3.472   H1    47      0yA   0.000000
  1029   O6    3.052   -1.911    1.949   Oh    47      0yA  -0.688000
  1030  H6O    3.715   -2.344    2.492   Ho    47      0yA   0.421000
  1031   C4    0.733   -0.052    1.561   Cg    47      0yA   0.322000
  1032   H4    1.743    0.244    1.273   H1    47      0yA   0.000000
  1033   O4    0.455    0.453    2.889   Oh    47      0yA  -0.733000
  1034  H4O    0.387    1.414    2.802   Ho    47      0yA   0.449000
  1035   C3   -0.277    0.596    0.586   Cg    47      0yA   0.165000
  1036   H3   -1.289    0.467    0.977   H1    47      0yA   0.000000
  1037   O3    0.013    2.022    0.514   Oh    47      0yA  -0.630000
  1038  H3O   -0.012    2.320   -0.416   Ho    47      0yA   0.413000
  1039   C2   -0.208   -0.029   -0.828   Cg    47      0yA   0.245000
  1040   H2    0.764    0.225   -1.255   H1    47      0yA   0.000000
  1041   N2   -1.252    0.539   -1.720   Ng    47      0yA  -0.552000
  1042  H2N   -2.112    0.017   -1.783    H    47      0yA   0.236000
  1043  C2N   -1.145    1.702   -2.373    C    47      0yA   0.588000
  1044  O2N   -0.181    2.444   -2.205    O    47      0yA  -0.579000
  1045  CME   -2.294    2.078   -3.334   Cg    47      0yA   0.063000
  1046  H1M   -2.763    3.001   -2.994   Hc    47      0yA   0.000000
  1047  H2M   -1.891    2.232   -4.337   Hc    47      0yA   0.000000
  1048  H3M   -3.050    1.291   -3.376   Hc    47      0yA   0.000000
  1049   C1   -0.967   -1.147    0.583   Cg    48      0yB   0.287000
  1050   H1   -0.351   -1.547    1.390   H2    48      0yB   0.000000
  1051   C2   -0.632    0.365    0.353   Cg    48      0yB   0.480000
  1052   H2   -1.313    0.742   -0.412   H1    48      0yB   0.000000
  1053   C3    0.820    0.499   -0.187   Cg    48      0yB   0.180000
  1054   H3    1.514    0.176    0.592   H1    48      0yB   0.000000
  1055   C4    1.026   -0.388   -1.438   Cg    48      0yB   0.302000
  1056   H4    0.404   -0.016   -2.255   H1    48      0yB   0.000000
  1057   C5    0.679   -1.864   -1.156   Cg    48      0yB   0.208000
  1058   H5    1.355   -2.248   -0.389   H1    48      0yB   0.000000
  1059   C6    0.802   -2.750   -2.409   Cg    48      0yB   0.289000
  1060  H61    1.824   -2.735   -2.789   H1    48      0yB   0.000000
  1061  H62    0.138   -2.388   -3.196   H1    48      0yB   0.000000
  1062   O6    0.448   -4.105   -2.082   Oh    48      0yB  -0.689000
  1063  H6O   -0.428   -4.103   -1.688   Ho    48      0yB   0.424000
  1064   O5   -0.716   -1.935   -0.630   Os    48      0yB  -0.433000
  1065   O4    2.412   -0.308   -1.834   Oh    48      0yB  -0.716000
  1066  H4O    2.626    0.632   -1.914   Ho    48      0yB   0.436000
  1067   O3    1.152    1.878   -0.541   Oh    48      0yB  -0.681000
  1068  H3O    1.172    2.436    0.245   Ho    48      0yB   0.423000
  1069   N2   -0.806    1.147    1.602   Ng    48      0yB  -0.722000
  1070  H2N   -0.452    0.748    2.455    H    48      0yB   0.300000
  1071  C2N   -1.574    2.237    1.681    C    48      0yB   0.648000
  1072  CME   -1.731    2.868    3.079   Cg    48      0yB   0.034000
  1073  H1M   -0.872    3.509    3.284   Hc    48      0yB   0.000000
  1074  H2M   -2.640    3.469    3.119   Hc    48      0yB   0.000000
  1075  H3M   -1.792    2.093    3.846   Hc    48      0yB   0.000000
  1076  O2N   -2.098    2.737    0.692    O    48      0yB  -0.576000
  1077   C1   -0.770   -0.865    1.619   Cg    49      0zA   0.398000
  1078   H1   -1.627   -1.063    2.262   H2    49      0zA   0.000000
  1079   O5   -1.027   -1.443    0.305   Os    49      0zA  -0.544000
  1080   C5   -0.024   -1.180   -0.800   Cg    49      0zA   0.187000
  1081   H5    0.910   -1.637   -0.466   H1    49      0zA   0.000000
  1082   C6   -0.294   -1.853   -2.223    C    49      0zA   0.798000
  1083  O6B   -1.120   -2.792   -2.291   O2    49      0zA  -0.787000
  1084  O6A    0.383   -1.440   -3.201   O2    49      0zA  -0.787000
  1085   C4    0.245    0.341   -0.927   Cg    49      0zA   0.193000
  1086   H4   -0.619    0.806   -1.405   H1    49      0zA   0.000000
  1087   O4    1.400    0.507   -1.790   Oh    49      0zA  -0.682000
  1088  H4O    1.237   -0.066   -2.572   Ho    49      0zA   0.422000
  1089   C3    0.509    1.033    0.440   Cg    49      0zA   0.300000
  1090   H3    1.497    0.739    0.801   H1    49      0zA   0.000000
  1091   O3    0.482    2.483    0.288   Oh    49      0zA  -0.743000
  1092  H3O    0.534    2.859    1.172   Ho    49      0zA   0.439000
  1093   C2   -0.541    0.665    1.515   Cg    49      0zA   0.326000
  1094   H2   -1.492    1.121    1.236   H1    49      0zA   0.000000
  1095   O2   -0.150    1.208    2.821   Oh    49      0zA  -0.732000
  1096  H2O    0.466    0.579    3.216   Ho    49      0zA   0.406000
  1097   C1   -1.497   -0.641    1.249   Cg    50      0zB   0.251000
  1098   H1   -0.901   -1.051    2.065   H2    50      0zB   0.000000
  1099   C2   -1.218    0.880    1.072   Cg    50      0zB   0.411000
  1100   H2   -1.953    1.301    0.382   H1    50      0zB   0.000000
  1101   C3    0.207    1.131    0.513   Cg    50      0zB   0.266000
  1102   H3    0.935    0.912    1.298   H1    50      0zB   0.000000
  1103   C4    0.521    0.244   -0.720   Cg    50      0zB   0.267000
  1104   H4   -0.073    0.586   -1.571   H1    50      0zB   0.000000
  1105   C5    0.217   -1.251   -0.489   Cg    50      0zB   0.075000
  1106   H5    0.876   -1.609    0.305   H1    50      0zB   0.000000
  1107   C6    0.589   -2.112   -1.765    C    50      0zB   0.893000
  1108  O6A   -0.179   -3.043   -2.096   O2    50      0zB  -0.818000
  1109  O6B    1.658   -1.827   -2.363   O2    50      0zB  -0.818000
  1110   O5   -1.189   -1.372    0.023   Os    50      0zB  -0.413000
  1111   O4    1.924    0.392   -1.052   Oh    50      0zB  -0.733000
  1112  H4O    2.121   -0.341   -1.682   Ho    50      0zB   0.429000
  1113   O3    0.371    2.522    0.103   Oh    50      0zB  -0.701000
  1114  H3O    1.221    2.561   -0.353   Ho    50      0zB   0.403000
  1115   O2   -1.387    1.505    2.378   Oh    50      0zB  -0.740000
  1116  H2O   -2.243    1.214    2.704   Ho    50      0zB   0.422000
  1117   O1   -0.163   -2.557    0.015   Os    51      1aA  -0.388000
  1118   C1   -1.051   -1.448    0.214   Cg    51      1aA   0.448000
  1119   H1   -1.971   -1.838    0.653   H2    51      1aA   0.000000
  1120   O5   -1.395   -0.781   -1.066   Os    51      1aA  -0.564000
  1121   C5   -0.345    0.021   -1.731   Cg    51      1aA   0.379000
  1122  H5A    0.472   -0.634   -2.037   H1    51      1aA   0.000000
  1123  H5E   -0.763    0.487   -2.624   H1    51      1aA   0.000000
  1124   C4    0.148    1.089   -0.751   Cg    51      1aA   0.245000
  1125   H4   -0.680    1.769   -0.541   H1    51      1aA   0.000000
  1126   O4    1.193    1.852   -1.375   Oh    51      1aA  -0.748000
  1127  H4O    1.940    1.278   -1.560   Ho    51      1aA   0.434000
  1128   C3    0.645    0.497    0.585   Cg    51      1aA   0.335000
  1129   H3    0.883    1.301    1.282   H1    51      1aA   0.000000
  1130   O3    1.841   -0.276    0.366   Oh    51      1aA  -0.772000
  1131  H3O    2.150   -0.632    1.202   Ho    51      1aA   0.461000
  1132   C2   -0.399   -0.455    1.205   Cg    51      1aA   0.268000
  1133   H2    0.046   -1.001    2.040   H1    51      1aA   0.000000
  1134   O2   -1.456    0.359    1.738   Oh    51      1aA  -0.735000
  1135  H2O   -1.095    0.970    2.384   Ho    51      1aA   0.443000
  1136   O1   -2.718   -0.963    1.090   Os    52      1aB  -0.388000
  1137   C1   -1.330   -0.769    0.883   Cg    52      1aB   0.379000
  1138   H1   -0.794   -1.175    1.742   H2    52      1aB   0.000000
  1139   C2   -0.995    0.747    0.708   Cg    52      1aB   0.300000
  1140   H2   -1.177    1.271    1.647   H1    52      1aB   0.000000
  1141   C3    0.485    0.901    0.297   Cg    52      1aB   0.297000
  1142   H3    0.694    1.948    0.075   H1    52      1aB   0.000000
  1143   C4    0.821    0.037   -0.946   Cg    52      1aB   0.224000
  1144   H4    0.247    0.404   -1.798   H1    52      1aB   0.000000
  1145   C5    0.446   -1.444   -0.712   Cg    52      1aB   0.356000
  1146  H5A    1.076   -1.882    0.064   H1    52      1aB   0.000000
  1147  H5E    0.596   -2.015   -1.629   H1    52      1aB   0.000000
  1148   O5   -0.978   -1.554   -0.305   Os    52      1aB  -0.529000
  1149   O4    2.235    0.157   -1.282   Oh    52      1aB  -0.730000
  1150  H4O    2.378    0.934   -1.835   Ho    52      1aB   0.440000
  1151   O3    1.328    0.501    1.412   Oh    52      1aB  -0.668000
  1152  H3O    2.235    0.444    1.086   Ho    52      1aB   0.407000
  1153   O2   -1.818    1.366   -0.327   Oh    52      1aB  -0.700000
  1154  H2O   -2.729    1.092   -0.169   Ho    52      1aB   0.418000
  1155   C2   -0.732   -1.064    0.778   Cg    53      1bA   0.130000
  1156   O6   -0.588   -1.604   -0.596   Os    53      1bA  -0.507000
  1157   C6    0.668   -1.277   -1.331   Cg    53      1bA   0.341000
  1158  H6A    1.498   -1.809   -0.863   H1    53      1bA   0.000000
  1159  H6E    0.579   -1.633   -2.357   H1    53      1bA   0.000000
  1160   C5    0.939    0.243   -1.320   Cg    53      1bA   0.224000
  1161   H5    0.196    0.729   -1.954   H1    53      1bA   0.000000
  1162   O5    2.256    0.480   -1.891   Oh    53      1bA  -0.690000
  1163  H5O    2.314    1.394   -2.189   Ho    53      1bA   0.429000
  1164   C4    0.856    0.829    0.112   Cg    53      1bA   0.335000
  1165   H4    1.657    0.423    0.733   H1    53      1bA   0.000000
  1166   O4    1.009    2.281    0.048   Oh    53      1bA  -0.724000
  1167  H4O    1.947    2.494    0.116   Ho    53      1bA   0.421000
  1168   C3   -0.519    0.480    0.732   Cg    53      1bA   0.372000
  1169   H3   -1.287    0.916    0.088   H1    53      1bA   0.000000
  1170   O3   -0.686    1.072    2.051   Oh    53      1bA  -0.716000
  1171  H3O   -0.365    1.979    1.997   Ho    53      1bA   0.430000
  1172   C1   -2.118   -1.453    1.378   Cg    53      1bA   0.428000
  1173  H11   -2.318   -2.509    1.193   H1    53      1bA   0.000000
  1174  H12   -2.115   -1.300    2.458   H1    53      1bA   0.000000
  1175   O1   -3.191   -0.670    0.814   Os    53      1bA  -0.473000
  1176   C2   -1.301   -0.792    0.515   Cg    54      1bB   0.227000
  1177   C3   -1.000    0.729    0.311   Cg    54      1bB   0.464000
  1178   H3   -1.701    1.127   -0.426   H1    54      1bB   0.000000
  1179   C4    0.442    0.989   -0.194   Cg    54      1bB   0.108000
  1180   H4    1.149    0.729    0.596   H1    54      1bB   0.000000
  1181   C5    0.743    0.135   -1.447   Cg    54      1bB   0.340000
  1182   H5    0.154    0.503   -2.289   H1    54      1bB   0.000000
  1183   C6    0.434   -1.361   -1.235   Cg    54      1bB   0.311000
  1184  H6A    1.130   -1.798   -0.517   H1    54      1bB   0.000000
  1185  H6E    0.534   -1.903   -2.176   H1    54      1bB   0.000000
  1186   O6   -0.953   -1.521   -0.728   Os    54      1bB  -0.477000
  1187   O5    2.145    0.282   -1.758   Oh    54      1bB  -0.720000
  1188  H5O    2.331    1.229   -1.736   Ho    54      1bB   0.429000
  1189   O4    0.620    2.400   -0.524   Oh    54      1bB  -0.675000
  1190  H4O    0.376    2.931    0.248   Ho    54      1bB   0.435000
  1191   O3   -1.194    1.454    1.555   Oh    54      1bB  -0.730000
  1192  H3O   -2.101    1.278    1.835   Ho    54      1bB   0.432000
  1193   C1   -0.578   -1.408    1.757   Cg    54      1bB   0.281000
  1194  H11    0.491   -1.202    1.708   H1    54      1bB   0.000000
  1195  H12   -0.960   -0.962    2.677   H1    54      1bB   0.000000
  1196   O1   -0.762   -2.838    1.828   Os    54      1bB  -0.425000
  1197   C2   -0.747   -0.944    0.890   Cg    55      1cA   0.345000
  1198   O6   -0.476   -1.529   -0.445   Os    55      1cA  -0.620000
  1199   C6    0.789   -1.174   -1.133   Cg    55      1cA   0.437000
  1200  H6A    1.633   -1.596   -0.585   H1    55      1cA   0.000000
  1201  H6E    0.782   -1.614   -2.130   H1    55      1cA   0.000000
  1202   C5    0.909    0.356   -1.235   Cg    55      1cA   0.195000
  1203   H5    0.057    0.737   -1.799   H1    55      1cA   0.000000
  1204   O5    2.123    0.751   -1.949   Oh    55      1cA  -0.709000
  1205  H5O    1.982    0.723   -2.903   Ho    55      1cA   0.415000
  1206   C4    0.880    0.974    0.180   Cg    55      1cA   0.367000
  1207   H4    0.922    2.060    0.083   H1    55      1cA   0.000000
  1208   O4    2.057    0.568    0.923   Oh    55      1cA  -0.720000
  1209  H4O    2.825    0.750    0.368   Ho    55      1cA   0.394000
  1210   C3   -0.403    0.591    0.963   Cg    55      1cA   0.247000
  1211   H3   -0.275    0.871    2.011   H1    55      1cA   0.000000
  1212   O3   -1.497    1.414    0.440   Oh    55      1cA  -0.655000
  1213  H3O   -1.419    2.315    0.778   Ho    55      1cA   0.406000
  1214   C1   -2.208   -1.280    1.345   Cg    55      1cA   0.386000
  1215  H11   -2.348   -2.361    1.389   H1    55      1cA   0.000000
  1216  H12   -2.376   -0.884    2.348   H1    55      1cA   0.000000
  1217   O1   -3.211   -0.729    0.462   Os    55      1cA  -0.488000
  1218   C2   -1.340   -0.628    0.564   Cg    56      1cB   0.244000
  1219   C3   -0.994    0.895    0.415   Cg    56      1cB   0.317000
  1220   H3   -1.075    1.381    1.388   H1    56      1cB   0.000000
  1221   C4    0.417    1.145   -0.178   Cg    56      1cB   0.344000
  1222   H4    0.515    2.198   -0.447   H1    56      1cB   0.000000
  1223   C5    0.677    0.286   -1.440   Cg    56      1cB   0.195000
  1224   H5    0.013    0.632   -2.233   H1    56      1cB   0.000000
  1225   C6    0.380   -1.204   -1.195   Cg    56      1cB   0.365000
  1226  H6A    1.085   -1.625   -0.476   H1    56      1cB   0.000000
  1227  H6E    0.474   -1.763   -2.126   H1    56      1cB   0.000000
  1228   O6   -1.002   -1.354   -0.681   Os    56      1cB  -0.460000
  1229   O5    2.046    0.457   -1.909   Oh    56      1cB  -0.684000
  1230  H5O    2.645    0.426   -1.152   Ho    56      1cB   0.415000
  1231   O4    1.428    0.862    0.835   Oh    56      1cB  -0.698000
  1232  H4O    1.629    1.675    1.313   Ho    56      1cB   0.417000
  1233   O3   -1.944    1.540   -0.477   Oh    56      1cB  -0.697000
  1234  H3O   -2.775    1.054   -0.372   Ho    56      1cB   0.407000
  1235   C1   -0.655   -1.289    1.803   Cg    56      1cB   0.297000
  1236  H11    0.428   -1.217    1.730   H1    56      1cB   0.000000
  1237  H12   -0.961   -0.778    2.717   H1    56      1cB   0.000000
  1238   O1   -0.994   -2.691    1.919   Os    56      1cB  -0.462000
  1239   O1   -1.688   -1.754   -0.900   Os    57      1dA  -0.388000
  1240   C1   -0.393   -1.272   -1.230   Cg    57      1dA   0.398000
  1241   H1   -0.150   -1.611   -2.237   H2    57      1dA   0.000000
  1242   O5    0.565   -1.877   -0.294   Os    57      1dA  -0.487000
  1243   C5    0.583   -1.360    1.104   Cg    57      1dA   0.275000
  1244  H5A   -0.325   -1.698    1.609   H1    57      1dA   0.000000
  1245  H5E    1.436   -1.790    1.629   H1    57      1dA   0.000000
  1246   C4    0.661    0.180    1.142   Cg    57      1dA   0.351000
  1247   H4    1.639    0.511    0.790   H1    57      1dA   0.000000
  1248   O4    0.481    0.615    2.510   Oh    57      1dA  -0.711000
  1249  H4O    0.359    1.573    2.474   Ho    57      1dA   0.422000
  1250   C3   -0.457    0.794    0.269   Cg    57      1dA   0.184000
  1251   H3   -1.422    0.481    0.670   H1    57      1dA   0.000000
  1252   O3   -0.422    2.251    0.329   Oh    57      1dA  -0.655000
  1253  H3O   -1.011    2.624   -0.334   Ho    57      1dA   0.417000
  1254   C2   -0.364    0.286   -1.191   Cg    57      1dA   0.246000
  1255   H2   -1.206    0.679   -1.763   H1    57      1dA   0.000000
  1256   O2    0.864    0.766   -1.814   Oh    57      1dA  -0.678000
  1257  H2O    0.851    0.604   -2.763   Ho    57      1dA   0.432000
  1258   O1    2.239   -1.309    1.801   Os    58      1dB  -0.388000
  1259   C1    1.278   -1.070    0.762   Cg    58      1dB   0.448000
  1260   H1    1.604   -1.617   -0.124   H2    58      1dB   0.000000
  1261   C2    1.224    0.439    0.446   Cg    58      1dB   0.226000
  1262   H2    2.207    0.794    0.133   H1    58      1dB   0.000000
  1263   C3    0.189    0.685   -0.672   Cg    58      1dB   0.201000
  1264   H3    0.558    0.212   -1.584   H1    58      1dB   0.000000
  1265   C4   -1.198    0.103   -0.328   Cg    58      1dB   0.335000
  1266   H4   -1.664    0.682    0.471   H1    58      1dB   0.000000
  1267   C5   -1.110   -1.374    0.093   Cg    58      1dB   0.275000
  1268  H5A   -0.852   -2.002   -0.763   H1    58      1dB   0.000000
  1269  H5E   -2.070   -1.712    0.484   H1    58      1dB   0.000000
  1270   O5   -0.074   -1.545    1.136   Os    58      1dB  -0.519000
  1271   O4   -2.026    0.160   -1.500   Oh    58      1dB  -0.709000
  1272  H4O   -2.116    1.073   -1.783   Ho    58      1dB   0.436000
  1273   O3    0.079    2.099   -0.917   Oh    58      1dB  -0.701000
  1274  H3O   -0.539    2.252   -1.636   Ho    58      1dB   0.432000
  1275   O2    0.820    1.149    1.639   Oh    58      1dB  -0.645000
  1276  H2O    1.451    0.979    2.342   Ho    58      1dB   0.415000
  1277   O1    0.588   -2.514    0.533   Os    59      1eA  -0.388000
  1278   C1   -0.458   -1.595    0.875   Cg    59      1eA   0.480000
  1279   H1   -1.240   -2.160    1.384   H2    59      1eA   0.000000
  1280   O5   -1.051   -0.964   -0.328   Os    59      1eA  -0.587000
  1281   C5   -0.246    0.035   -1.076   Cg    59      1eA   0.374000
  1282   H5    0.653   -0.453   -1.459   H1    59      1eA   0.000000
  1283   C6   -1.091    0.527   -2.258   Cg    59      1eA   0.259000
  1284  H61   -2.047    0.924   -1.911   H1    59      1eA   0.000000
  1285  H62   -0.568    1.314   -2.801   H1    59      1eA   0.000000
  1286   O6   -1.327   -0.570   -3.151   Oh    59      1eA  -0.663000
  1287  H6O   -0.487   -0.911   -3.467   Ho    59      1eA   0.406000
  1288   C4    0.161    1.146   -0.089   Cg    59      1eA   0.261000
  1289   H4   -0.741    1.664    0.239   H1    59      1eA   0.000000
  1290   O4    1.000    2.108   -0.754   Oh    59      1eA  -0.721000
  1291  H4O    1.812    1.682   -1.037   Ho    59      1eA   0.415000
  1292   C3    0.892    0.610    1.161   Cg    59      1eA   0.328000
  1293   H3    1.061    1.424    1.868   H1    59      1eA   0.000000
  1294   O3    2.175    0.068    0.788   Oh    59      1eA  -0.714000
  1295  H3O    2.624   -0.259    1.571   Ho    59      1eA   0.420000
  1296   C2    0.105   -0.528    1.840   Cg    59      1eA   0.179000
  1297   H2    0.724   -1.005    2.603   H1    59      1eA   0.000000
  1298   O2   -1.020    0.068    2.507   Oh    59      1eA  -0.690000
  1299  H2O   -1.519   -0.613    2.963   Ho    59      1eA   0.447000
  1300   O1   -2.752   -0.478    1.509   Os    60      1eB  -0.388000
  1301   C1   -1.371   -0.283    1.278   Cg    60      1eB   0.488000
  1302   H1   -0.816   -0.683    2.126   H2    60      1eB   0.000000
  1303   C2   -1.059    1.233    1.083   Cg    60      1eB   0.184000
  1304   H2   -1.246    1.765    2.017   H1    60      1eB   0.000000
  1305   C3    0.418    1.390    0.678   Cg    60      1eB   0.315000
  1306   H3    0.630    2.441    0.475   H1    60      1eB   0.000000
  1307   C4    0.749    0.548   -0.586   Cg    60      1eB   0.320000
  1308   H4    0.166    0.932   -1.424   H1    60      1eB   0.000000
  1309   C5    0.388   -0.943   -0.375   Cg    60      1eB   0.257000
  1310   H5    1.031   -1.360    0.404   H1    60      1eB   0.000000
  1311   C6    0.579   -1.771   -1.661   Cg    60      1eB   0.278000
  1312  H61    1.617   -1.732   -1.992   H1    60      1eB   0.000000
  1313  H62   -0.050   -1.375   -2.459   H1    60      1eB   0.000000
  1314   O6    0.220   -3.143   -1.420   Oh    60      1eB  -0.677000
  1315  H6O   -0.651   -3.156   -1.012   Ho    60      1eB   0.408000
  1316   O5   -1.038   -1.060    0.078   Os    60      1eB  -0.532000
  1317   O4    2.159    0.691   -0.927   Oh    60      1eB  -0.724000
  1318  H4O    2.305    1.528   -1.382   Ho    60      1eB   0.420000
  1319   O3    1.244    0.974    1.800   Oh    60      1eB  -0.681000
  1320  H3O    2.164    0.953    1.511   Ho    60      1eB   0.403000
  1321   O2   -1.878    1.844    0.036   Oh    60      1eB  -0.697000
  1322  H2O   -2.807    1.684    0.245   Ho    60      1eB   0.432000
  1323   O1   -1.769   -1.651   -1.143   Os    61      1fA  -0.388000
  1324   C1   -0.473   -1.124   -1.445   Cg    61      1fA   0.399000
  1325   H1   -0.149   -1.530   -2.403   H2    61      1fA   0.000000
  1326   O5    0.431   -1.624   -0.397   Os    61      1fA  -0.494000
  1327   C5    0.264   -1.045    0.972   Cg    61      1fA   0.187000
  1328   H5   -0.702   -1.376    1.354   H1    61      1fA   0.000000
  1329   C6    1.339   -1.656    1.875   Cg    61      1fA   0.065000
  1330  H61    2.346   -1.428    1.524   Hc    61      1fA   0.000000
  1331  H62    1.247   -2.742    1.916   Hc    61      1fA   0.000000
  1332  H63    1.253   -1.286    2.897   Hc    61      1fA   0.000000
  1333   C4    0.236    0.508    0.938   Cg    61      1fA   0.263000
  1334   H4   -0.061    0.875    1.922   H1    61      1fA   0.000000
  1335   O4    1.558    1.032    0.644   Oh    61      1fA  -0.739000
  1336  H4O    1.474    1.991    0.570   Ho    61      1fA   0.447000
  1337   C3   -0.767    1.033   -0.119   Cg    61      1fA   0.228000
  1338   H3   -1.771    0.721    0.170   H1    61      1fA   0.000000
  1339   O3   -0.745    2.497   -0.120   Oh    61      1fA  -0.693000
  1340  H3O   -1.567    2.819   -0.508   Ho    61      1fA   0.426000
  1341   C2   -0.428    0.440   -1.510   Cg    61      1fA   0.456000
  1342   H2    0.587    0.730   -1.783   H1    61      1fA   0.000000
  1343   O2   -1.314    0.975   -2.544   Oh    61      1fA  -0.804000
  1344  H2O   -0.988    1.840   -2.808   Ho    61      1fA   0.453000
  1345   O1   -2.309   -1.662    1.199   Os    62      1fB  -0.388000
  1346   C1   -1.024   -1.324    0.659   Cg    62      1fB   0.418000
  1347   H1   -0.429   -2.234    0.579   H2    62      1fB   0.000000
  1348   C2   -0.342   -0.319    1.614   Cg    62      1fB   0.346000
  1349   H2   -1.043    0.472    1.889   H1    62      1fB   0.000000
  1350   C3    0.928    0.296    0.992   Cg    62      1fB   0.255000
  1351   H3    1.697   -0.476    0.920   H1    62      1fB   0.000000
  1352   C4    0.690    0.860   -0.423   Cg    62      1fB   0.229000
  1353   H4    1.633    1.206   -0.849   H1    62      1fB   0.000000
  1354   C5    0.080   -0.236   -1.322   Cg    62      1fB   0.106000
  1355   H5    0.789   -1.064   -1.381   H1    62      1fB   0.000000
  1356   C6   -0.249    0.189   -2.755   Cg    62      1fB   0.092000
  1357  H61   -0.628   -0.652   -3.338   Hc    62      1fB   0.000000
  1358  H62   -1.006    0.974   -2.787   Hc    62      1fB   0.000000
  1359  H63    0.637    0.565   -3.268   Hc    62      1fB   0.000000
  1360   O5   -1.164   -0.734   -0.690   Os    62      1fB  -0.442000
  1361   O4   -0.232    1.971   -0.358   Oh    62      1fB  -0.659000
  1362  H4O   -0.385    2.311   -1.242   Ho    62      1fB   0.423000
  1363   O3    1.430    1.343    1.843   Oh    62      1fB  -0.676000
  1364  H3O    1.602    0.989    2.719   Ho    62      1fB   0.427000
  1365   O2    0.051   -1.041    2.796   Oh    62      1fB  -0.765000
  1366  H2O   -0.725   -1.433    3.203   Ho    62      1fB   0.440000
  1367   O1    0.305   -1.238    2.245   Os    63      1gA  -0.388000
  1368   C1   -0.803   -0.562    1.669   Cg    63      1gA   0.509000
  1369   H1   -1.680   -0.723    2.296   H2    63      1gA   0.000000
  1370   O5   -1.033   -1.185    0.366   Os    63      1gA  -0.574000
  1371   C5   -0.013   -0.958   -0.710   Cg    63      1gA   0.283000
  1372   H5    0.930   -1.406   -0.389   H1    63      1gA   0.000000
  1373   C6   -0.467   -1.655   -2.013   Cg    63      1gA   0.276000
  1374  H61   -1.505   -1.397   -2.232   H1    63      1gA   0.000000
  1375  H62    0.144   -1.332   -2.855   H1    63      1gA   0.000000
  1376   O6   -0.348   -3.089   -1.896   Oh    63      1gA  -0.682000
  1377  H6O    0.569   -3.348   -2.012   Ho    63      1gA   0.418000
  1378   C4    0.211    0.557   -0.897   Cg    63      1gA   0.254000
  1379   H4   -0.688    1.005   -1.326   H1    63      1gA   0.000000
  1380   O4    1.318    0.762   -1.812   Oh    63      1gA  -0.710000
  1381  H4O    1.516    1.709   -1.815   Ho    63      1gA   0.436000
  1382   C3    0.538    1.246    0.449   Cg    63      1gA   0.286000
  1383   H3    1.509    0.901    0.811   H1    63      1gA   0.000000
  1384   O3    0.606    2.680    0.231   Oh    63      1gA  -0.699000
  1385  H3O    0.574    3.106    1.099   Ho    63      1gA   0.427000
  1386   C2   -0.535    0.964    1.522   Cg    63      1gA   0.246000
  1387   H2   -1.467    1.434    1.208   H1    63      1gA   0.000000
  1388   O2   -0.140    1.565    2.798   Oh    63      1gA  -0.713000
  1389  H2O    0.457    0.962    3.262   Ho    63      1gA   0.437000
  1390   O1   -2.670   -0.461    1.514   Os    64      1gB  -0.388000
  1391   C1   -1.285   -0.329    1.234   Cg    64      1gB   0.384000
  1392   H1   -0.711   -0.729    2.072   H2    64      1gB   0.000000
  1393   C2   -0.934    1.163    0.980   Cg    64      1gB   0.310000
  1394   H2   -1.632    1.578    0.249   H1    64      1gB   0.000000
  1395   C3    0.509    1.293    0.442   Cg    64      1gB   0.284000
  1396   H3    1.210    1.032    1.237   H1    64      1gB   0.000000
  1397   C4    0.761    0.373   -0.778   Cg    64      1gB   0.276000
  1398   H4    0.166    0.723   -1.625   H1    64      1gB   0.000000
  1399   C5    0.388   -1.091   -0.462   Cg    64      1gB   0.225000
  1400   H5    1.045   -1.465    0.326   H1    64      1gB   0.000000
  1401   C6    0.520   -2.011   -1.691   Cg    64      1gB   0.282000
  1402  H61    1.550   -2.030   -2.047   H1    64      1gB   0.000000
  1403  H62   -0.117   -1.653   -2.501   H1    64      1gB   0.000000
  1404   O6    0.124   -3.351   -1.342   Oh    64      1gB  -0.688000
  1405  H6O   -0.752   -3.313   -0.946   Ho    64      1gB   0.424000
  1406   O5   -1.020   -1.135    0.039   Os    64      1gB  -0.471000
  1407   O4    2.162    0.434   -1.136   Oh    64      1gB  -0.714000
  1408  H4O    2.403    1.367   -1.207   Ho    64      1gB   0.440000
  1409   O3    0.751    2.671    0.047   Oh    64      1gB  -0.709000
  1410  H3O    0.511    3.233    0.797   Ho    64      1gB   0.432000
  1411   O2   -1.048    1.923    2.219   Oh    64      1gB  -0.718000
  1412  H2O   -1.932    1.777    2.579   Ho    64      1gB   0.437000
  1413   O1   -1.677   -1.691   -1.531   Os    65      1hA  -0.388000
  1414   C1   -0.389   -1.105   -1.687   Cg    65      1hA   0.394000
  1415   H1    0.047   -1.481   -2.613   H2    65      1hA   0.000000
  1416   O5    0.450   -1.551   -0.561   Os    65      1hA  -0.461000
  1417   C5    0.170   -0.983    0.784   Cg    65      1hA   0.279000
  1418   H5   -0.804   -1.353    1.112   H1    65      1hA   0.000000
  1419   C6    1.239   -1.538    1.728   Cg    65      1hA   0.023000
  1420  H61    2.239   -1.208    1.441   Hc    65      1hA   0.000000
  1421  H62    1.240   -2.629    1.729   Hc    65      1hA   0.000000
  1422  H63    1.070   -1.217    2.755   Hc    65      1hA   0.000000
  1423   C4    0.126    0.564    0.726   Cg    65      1hA   0.187000
  1424   H4    1.124    0.954    0.525   H1    65      1hA   0.000000
  1425   O4   -0.332    1.085    2.006   Oh    65      1hA  -0.644000
  1426  H4O    0.364    1.003    2.667   Ho    65      1hA   0.405000
  1427   C3   -0.849    1.032   -0.377   Cg    65      1hA   0.236000
  1428   H3   -1.859    0.713   -0.114   H1    65      1hA   0.000000
  1429   O3   -0.848    2.483   -0.448   Oh    65      1hA  -0.649000
  1430  H3O   -1.015    2.805    0.446   Ho    65      1hA   0.425000
  1431   C2   -0.497    0.443   -1.762   Cg    65      1hA   0.248000
  1432   H2   -1.270    0.720   -2.480   H1    65      1hA   0.000000
  1433   O2    0.767    0.998   -2.225   Oh    65      1hA  -0.670000
  1434  H2O    0.705    1.956   -2.123   Ho    65      1hA   0.421000
  1435   O1   -3.316   -0.424    0.053   Os    66      1hB  -0.388000
  1436   C1   -2.002    0.119   -0.139   Cg    66      1hB   0.381000
  1437   H1   -2.115    1.144   -0.498   H2    66      1hB   0.000000
  1438   C2   -1.247   -0.717   -1.192   Cg    66      1hB   0.243000
  1439   H2   -1.794   -0.720   -2.136   H1    66      1hB   0.000000
  1440   C3    0.158   -0.116   -1.395   Cg    66      1hB   0.182000
  1441   H3    0.041    0.875   -1.837   H1    66      1hB   0.000000
  1442   C4    0.947    0.012   -0.075   Cg    66      1hB   0.388000
  1443   H4    1.242   -0.977    0.280   H1    66      1hB   0.000000
  1444   C5    0.133    0.739    1.022   Cg    66      1hB   0.172000
  1445   H5    0.020    1.790    0.749   H1    66      1hB   0.000000
  1446  C6M    0.754    0.664    2.418   Cg    66      1hB   0.039000
  1447  H3M    1.739    1.133    2.442   Hc    66      1hB   0.000000
  1448  H2M    0.874   -0.368    2.752   Hc    66      1hB   0.000000
  1449  H1M    0.136    1.178    3.155   Hc    66      1hB   0.000000
  1450   O5   -1.222    0.144    1.117   Os    66      1hB  -0.427000
  1451   O4    2.125    0.795   -0.333   Oh    66      1hB  -0.728000
  1452  H4O    2.634    0.883    0.477   Ho    66      1hB   0.432000
  1453   O3    0.894   -0.933   -2.325   Oh    66      1hB  -0.665000
  1454  H3O    1.759   -0.546   -2.475   Ho    66      1hB   0.418000
  1455   O2   -1.123   -2.075   -0.710   Oh    66      1hB  -0.673000
  1456  H2O   -0.636   -2.597   -1.351   Ho    66      1hB   0.432000
  1457   C2   -0.651   -1.037    0.904   Cg    67      1jA   0.114000
  1458   O6   -0.549   -1.630   -0.450   Os    67      1jA  -0.504000
  1459   C6    0.651   -1.321   -1.275   Cg    67      1jA   0.368000
  1460  H6A    1.511   -1.837   -0.845   H1    67      1jA   0.000000
  1461  H6E    0.498   -1.710   -2.282   H1    67      1jA   0.000000
  1462   C5    0.921    0.195   -1.330   Cg    67      1jA   0.273000
  1463   H5    0.140    0.680   -1.917   H1    67      1jA   0.000000
  1464   O5    2.199    0.416   -1.984   Oh    67      1jA  -0.699000
  1465  H5O    2.378    1.365   -1.980   Ho    67      1jA   0.419000
  1466   C4    0.956    0.792    0.097   Cg    67      1jA   0.281000
  1467   H4    1.793    0.352    0.642   H1    67      1jA   0.000000
  1468   O4    1.174    2.235    0.041   Oh    67      1jA  -0.672000
  1469  H4O    1.566    2.531    0.870   Ho    67      1jA   0.413000
  1470   C3   -0.356    0.496    0.867   Cg    67      1jA   0.271000
  1471   H3   -0.264    0.874    1.886   H1    67      1jA   0.000000
  1472   O3   -1.454    1.205    0.221   Oh    67      1jA  -0.654000
  1473  H3O   -1.146    2.097    0.014   Ho    67      1jA   0.425000
  1474   C1   -2.027   -1.390    1.553   Cg    67      1jA   0.410000
  1475  H11   -2.136   -2.471    1.650   H1    67      1jA   0.000000
  1476  H12   -2.086   -0.956    2.553   H1    67      1jA   0.000000
  1477   O1   -3.119   -0.886    0.767   Os    67      1jA  -0.445000
  1478   C2   -1.303   -0.889    0.706   Cg    68      1jB   0.413000
  1479   C3   -1.170    0.663    0.516   Cg    68      1jB   0.363000
  1480   H3   -1.357    1.168    1.465   H1    68      1jB   0.000000
  1481   C4    0.247    1.030    0.002   Cg    68      1jB   0.155000
  1482   H4    0.970    0.778    0.778   H1    68      1jB   0.000000
  1483   C5    0.617    0.250   -1.285   Cg    68      1jB   0.374000
  1484   H5   -0.000    0.600   -2.114   H1    68      1jB   0.000000
  1485   C6    0.413   -1.274   -1.114   Cg    68      1jB   0.292000
  1486  H6A    1.171   -1.680   -0.442   H1    68      1jB   0.000000
  1487  H6E    0.518   -1.774   -2.077   H1    68      1jB   0.000000
  1488   O6   -0.929   -1.574   -0.556   Os    68      1jB  -0.551000
  1489   O5    2.013    0.517   -1.597   Oh    68      1jB  -0.729000
  1490  H5O    2.596    0.104   -0.953   Ho    68      1jB   0.426000
  1491   O4    0.339    2.470   -0.216   Oh    68      1jB  -0.684000
  1492  H4O    1.161    2.668   -0.687   Ho    68      1jB   0.438000
  1493   O3   -2.132    1.157   -0.466   Oh    68      1jB  -0.725000
  1494  H3O   -1.903    2.082   -0.634   Ho    68      1jB   0.432000
  1495   C1   -0.476   -1.401    1.933   Cg    68      1jB   0.280000
  1496  H11    0.535   -0.998    1.904   H1    68      1jB   0.000000
  1497  H12   -0.937   -1.056    2.859   H1    68      1jB   0.000000
  1498   O1   -0.371   -2.840    1.976   Os    68      1jB  -0.484000
  1499   O1    0.426   -2.501    0.438   Os    69      1kA  -0.388000
  1500   C1   -0.561   -1.542    0.859   Cg    69      1kA   0.473000
  1501   H1   -1.351   -2.075    1.388   H2    69      1kA   0.000000
  1502   O5   -1.162   -0.842   -0.299   Os    69      1kA  -0.540000
  1503   C5   -0.285    0.081   -1.072   Cg    69      1kA   0.301000
  1504   H5    0.546   -0.501   -1.476   H1    69      1kA   0.000000
  1505   C6   -1.080    0.642   -2.259   Cg    69      1kA   0.287000
  1506  H61   -1.994    1.130   -1.919   H1    69      1kA   0.000000
  1507  H62   -0.480    1.370   -2.805   H1    69      1kA   0.000000
  1508   O6   -1.419   -0.436   -3.142   Oh    69      1kA  -0.691000
  1509  H6O   -0.616   -0.860   -3.453   Ho    69      1kA   0.422000
  1510   C4    0.317    1.151   -0.127   Cg    69      1kA   0.196000
  1511   H4    1.046    1.749   -0.676   H1    69      1kA   0.000000
  1512   O4   -0.729    2.032    0.323   Oh    69      1kA  -0.712000
  1513  H4O   -1.149    2.444   -0.435   Ho    69      1kA   0.420000
  1514   C3    0.979    0.546    1.126   Cg    69      1kA   0.354000
  1515   H3    1.235    1.335    1.834   H1    69      1kA   0.000000
  1516   O3    2.200   -0.088    0.700   Oh    69      1kA  -0.744000
  1517  H3O    2.647   -0.465    1.461   Ho    69      1kA   0.436000
  1518   C2    0.052   -0.486    1.804   Cg    69      1kA   0.281000
  1519   H2   -0.786    0.074    2.223   H1    69      1kA   0.000000
  1520   O2    0.714   -1.117    2.915   Oh    69      1kA  -0.716000
  1521  H2O    1.451   -1.640    2.592   Ho    69      1kA   0.427000
  1522   O1   -2.585   -0.568    1.460   Os    70      1kB  -0.388000
  1523   C1   -1.205   -0.374    1.207   Cg    70      1kB   0.449000
  1524   H1   -0.624   -0.805    2.023   H2    70      1kB   0.000000
  1525   C2   -0.901    1.144    1.037   Cg    70      1kB   0.308000
  1526   H2   -1.592    1.562    0.304   H1    70      1kB   0.000000
  1527   C3    0.544    1.350    0.524   Cg    70      1kB   0.253000
  1528   H3    0.705    2.410    0.322   H1    70      1kB   0.000000
  1529   C4    0.824    0.536   -0.759   Cg    70      1kB   0.217000
  1530   H4    1.882    0.612   -1.013   H1    70      1kB   0.000000
  1531   C5    0.461   -0.961   -0.562   Cg    70      1kB   0.303000
  1532   H5    1.148   -1.376    0.179   H1    70      1kB   0.000000
  1533   C6    0.609   -1.792   -1.852   Cg    70      1kB   0.259000
  1534  H61    1.608   -1.663   -2.269   H1    70      1kB   0.000000
  1535  H62   -0.117   -1.471   -2.599   H1    70      1kB   0.000000
  1536   O6    0.402   -3.190   -1.569   Oh    70      1kB  -0.670000
  1537  H6O   -0.472   -3.293   -1.181   Ho    70      1kB   0.416000
  1538   O5   -0.933   -1.108   -0.031   Os    70      1kB  -0.514000
  1539   O4    0.064    1.115   -1.857   Oh    70      1kB  -0.700000
  1540  H4O    0.467    1.942   -2.145   Ho    70      1kB   0.425000
  1541   O3    1.501    0.937    1.535   Oh    70      1kB  -0.710000
  1542  H3O    1.270    1.398    2.354   Ho    70      1kB   0.442000
  1543   O2   -1.079    1.876    2.290   Oh    70      1kB  -0.710000
  1544  H2O   -1.978    1.719    2.603   Ho    70      1kB   0.426000
  1545   O1    0.382   -2.565    0.391   Os    71      1lA  -0.388000
  1546   C1   -0.590   -1.583    0.797   Cg    71      1lA   0.465000
  1547   H1   -1.405   -2.099    1.305   H2    71      1lA   0.000000
  1548   O5   -1.143   -0.875   -0.382   Os    71      1lA  -0.527000
  1549   C5   -0.215    0.015   -1.134   Cg    71      1lA   0.216000
  1550   H5    0.621   -0.588   -1.495   H1    71      1lA   0.000000
  1551   C6   -0.949    0.576   -2.360   Cg    71      1lA   0.308000
  1552  H61   -1.866    1.087   -2.064   H1    71      1lA   0.000000
  1553  H62   -0.313    1.285   -2.890   H1    71      1lA   0.000000
  1554   O6   -1.274   -0.508   -3.242   Oh    71      1lA  -0.684000
  1555  H6O   -0.467   -0.951   -3.514   Ho    71      1lA   0.418000
  1556   C4    0.359    1.080   -0.176   Cg    71      1lA   0.204000
  1557   H4    1.099    1.686   -0.701   H1    71      1lA   0.000000
  1558   O4   -0.723    1.937    0.254   Oh    71      1lA  -0.673000
  1559  H4O   -1.127    2.351   -0.512   Ho    71      1lA   0.436000
  1560   C3    1.011    0.406    1.051   Cg    71      1lA   0.253000
  1561   H3    1.883   -0.157    0.715   H1    71      1lA   0.000000
  1562   O3    1.461    1.424    1.965   Oh    71      1lA  -0.701000
  1563  H3O    1.876    1.009    2.726   Ho    71      1lA   0.433000
  1564   C2    0.034   -0.549    1.763   Cg    71      1lA   0.339000
  1565   H2   -0.777    0.035    2.201   H1    71      1lA   0.000000
  1566   O2    0.708   -1.239    2.832   Oh    71      1lA  -0.724000
  1567  H2O    1.415   -1.778    2.468   Ho    71      1lA   0.431000
  1568   O1   -2.572   -0.509    1.551   Os    72      1lB  -0.388000
  1569   C1   -1.184   -0.369    1.269   Cg    72      1lB   0.374000
  1570   H1   -0.612   -0.767    2.109   H2    72      1lB   0.000000
  1571   C2   -0.832    1.130    1.034   Cg    72      1lB   0.357000
  1572   H2   -1.534    1.563    0.318   H1    72      1lB   0.000000
  1573   C3    0.612    1.261    0.494   Cg    72      1lB   0.259000
  1574   H3    1.306    0.938    1.273   H1    72      1lB   0.000000
  1575   C4    0.851    0.384   -0.756   Cg    72      1lB   0.203000
  1576   H4    1.900    0.449   -1.046   H1    72      1lB   0.000000
  1577   C5    0.491   -1.089   -0.462   Cg    72      1lB   0.140000
  1578   H5    1.177   -1.450    0.308   H1    72      1lB   0.000000
  1579   C6    0.635   -2.005   -1.691   Cg    72      1lB   0.319000
  1580  H61    1.632   -1.909   -2.120   H1    72      1lB   0.000000
  1581  H62   -0.099   -1.745   -2.456   H1    72      1lB   0.000000
  1582   O6    0.431   -3.368   -1.286   Oh    72      1lB  -0.693000
  1583  H6O   -0.444   -3.431   -0.892   Ho    72      1lB   0.419000
  1584   O5   -0.900   -1.181    0.078   Os    72      1lB  -0.402000
  1585   O4    0.041    0.872   -1.855   Oh    72      1lB  -0.664000
  1586  H4O    0.211    1.821   -1.935   Ho    72      1lB   0.437000
  1587   O3    0.920    2.646    0.172   Oh    72      1lB  -0.694000
  1588  H3O    0.716    3.178    0.953   Ho    72      1lB   0.433000
  1589   O2   -0.931    1.865    2.291   Oh    72      1lB  -0.726000
  1590  H2O   -1.815    1.718    2.649   Ho    72      1lB   0.432000
  1591   O1    0.188   -1.310    2.418   Os    73      1mA  -0.388000
  1592   C1   -0.866   -0.671    1.711   Cg    73      1mA   0.433000
  1593   H1   -1.799   -0.851    2.245   H2    73      1mA   0.000000
  1594   O5   -0.948   -1.307    0.388   Os    73      1mA  -0.507000
  1595   C5    0.126   -1.012   -0.612   Cg    73      1mA   0.276000
  1596   H5    1.055   -1.458   -0.250   H1    73      1mA   0.000000
  1597   C6   -0.238   -1.664   -1.963   Cg    73      1mA   0.266000
  1598  H61   -1.257   -1.396   -2.246   H1    73      1mA   0.000000
  1599  H62    0.431   -1.315   -2.750   H1    73      1mA   0.000000
  1600   O6   -0.127   -3.102   -1.890   Oh    73      1mA  -0.688000
  1601  H6O    0.797   -3.358   -1.863   Ho    73      1mA   0.422000
  1602   C4    0.340    0.514   -0.739   Cg    73      1mA   0.326000
  1603   H4   -0.527    0.972   -1.218   H1    73      1mA   0.000000
  1604   O4    1.512    0.756   -1.561   Oh    73      1mA  -0.733000
  1605  H4O    1.685    1.706   -1.540   Ho    73      1mA   0.438000
  1606   C3    0.568    1.150    0.654   Cg    73      1mA   0.252000
  1607   H3    1.480    0.730    1.085   H1    73      1mA   0.000000
  1608   O3    0.761    2.594    0.540   Oh    73      1mA  -0.696000
  1609  H3O    1.179    2.931    1.341   Ho    73      1mA   0.431000
  1610   C2   -0.608    0.859    1.613   Cg    73      1mA   0.245000
  1611   H2   -0.368    1.249    2.603   H1    73      1mA   0.000000
  1612   O2   -1.809    1.539    1.140   Oh    73      1mA  -0.717000
  1613  H2O   -1.575    2.443    0.896   Ho    73      1mA   0.446000
  1614   O1   -2.633   -0.579    1.769   Os    74      1mB  -0.388000
  1615   C1   -1.276   -0.345    1.406   Cg    74      1mB   0.314000
  1616   H1   -0.643   -0.646    2.242   H2    74      1mB   0.000000
  1617   C2   -1.052    1.157    1.078   Cg    74      1mB   0.241000
  1618   H2   -1.271    1.764    1.957   H1    74      1mB   0.000000
  1619   C3    0.433    1.323    0.674   Cg    74      1mB   0.263000
  1620   H3    1.048    0.974    1.507   H1    74      1mB   0.000000
  1621   C4    0.759    0.463   -0.577   Cg    74      1mB   0.349000
  1622   H4    0.183    0.817   -1.433   H1    74      1mB   0.000000
  1623   C5    0.434   -1.029   -0.307   Cg    74      1mB   0.206000
  1624   H5    1.133   -1.410    0.440   H1    74      1mB   0.000000
  1625   C6    0.564   -1.883   -1.581   Cg    74      1mB   0.273000
  1626  H61    1.577   -1.825   -1.979   H1    74      1mB   0.000000
  1627  H62   -0.127   -1.526   -2.347   H1    74      1mB   0.000000
  1628   O6    0.261   -3.257   -1.281   Oh    74      1mB  -0.680000
  1629  H6O   -0.615   -3.296   -0.886   Ho    74      1mB   0.419000
  1630   O5   -0.951   -1.182    0.242   Os    74      1mB  -0.393000
  1631   O4    2.172    0.574   -0.890   Oh    74      1mB  -0.746000
  1632  H4O    2.315    1.403   -1.359   Ho    74      1mB   0.443000
  1633   O3    0.758    2.728    0.470   Oh    74      1mB  -0.692000
  1634  H3O    1.699    2.867    0.618   Ho    74      1mB   0.430000
  1635   O2   -1.933    1.561   -0.013   Oh    74      1mB  -0.664000
  1636  H2O   -2.835    1.348    0.250   Ho    74      1mB   0.431000
  1637   O1    0.437   -2.509    0.527   Os    75      1nA  -0.388000
  1638   C1   -0.633   -1.616    0.878   Cg    75      1nA   0.478000
  1639   H1   -1.424   -2.200    1.350   H2    75      1nA   0.000000
  1640   O5   -1.194   -0.954   -0.322   Os    75      1nA  -0.611000
  1641   C5   -0.367    0.066   -1.024   Cg    75      1nA   0.404000
  1642   H5    0.521   -0.423   -1.429   H1    75      1nA   0.000000
  1643   C6   -1.203    0.626   -2.183   Cg    75      1nA   0.280000
  1644  H61   -2.146    1.033   -1.816   H1    75      1nA   0.000000
  1645  H62   -0.661    1.421   -2.696   H1    75      1nA   0.000000
  1646   O6   -1.470   -0.428   -3.118   Oh    75      1nA  -0.663000
  1647  H6O   -0.640   -0.776   -3.454   Ho    75      1nA   0.396000
  1648   C4    0.070    1.136    0.002   Cg    75      1nA   0.167000
  1649   H4   -0.816    1.681    0.331   H1    75      1nA   0.000000
  1650   O4    0.955    2.079   -0.629   Oh    75      1nA  -0.733000
  1651  H4O    1.742    1.622   -0.935   Ho    75      1nA   0.444000
  1652   C3    0.760    0.550    1.252   Cg    75      1nA   0.330000
  1653   H3    0.946    1.340    1.981   H1    75      1nA   0.000000
  1654   O3    2.022   -0.047    0.879   Oh    75      1nA  -0.714000
  1655  H3O    2.613    0.634    0.548   Ho    75      1nA   0.441000
  1656   C2   -0.160   -0.524    1.863   Cg    75      1nA   0.228000
  1657   H2   -1.056   -0.011    2.213   H1    75      1nA   0.000000
  1658   O2    0.452   -1.118    3.023   Oh    75      1nA  -0.668000
  1659  H2O    1.251   -1.581    2.760   Ho    75      1nA   0.415000
  1660   O1   -2.682   -0.485    1.414   Os    76      1nB  -0.388000
  1661   C1   -1.301   -0.301    1.152   Cg    76      1nB   0.422000
  1662   H1   -0.719   -0.706    1.982   H2    76      1nB   0.000000
  1663   C2   -0.998    1.212    0.937   Cg    76      1nB   0.301000
  1664   H2   -1.699    1.613    0.200   H1    76      1nB   0.000000
  1665   C3    0.435    1.414    0.400   Cg    76      1nB   0.234000
  1666   H3    0.594    2.471    0.177   H1    76      1nB   0.000000
  1667   C4    0.640    0.575   -0.883   Cg    76      1nB   0.286000
  1668   H4   -0.057    0.927   -1.645   H1    76      1nB   0.000000
  1669   C5    0.371   -0.926   -0.621   Cg    76      1nB   0.198000
  1670   H5    1.082   -1.294    0.120   H1    76      1nB   0.000000
  1671   C6    0.511   -1.786   -1.892   Cg    76      1nB   0.313000
  1672  H61    1.524   -1.725   -2.289   H1    76      1nB   0.000000
  1673  H62   -0.184   -1.444   -2.660   H1    76      1nB   0.000000
  1674   O6    0.218   -3.156   -1.570   Oh    76      1nB  -0.689000
  1675  H6O   -0.598   -3.169   -1.059   Ho    76      1nB   0.418000
  1676   O5   -1.014   -1.072   -0.066   Os    76      1nB  -0.507000
  1677   O4    1.983    0.774   -1.384   Oh    76      1nB  -0.707000
  1678  H4O    2.581    0.819   -0.627   Ho    76      1nB   0.430000
  1679   O3    1.400    1.006    1.414   Oh    76      1nB  -0.615000
  1680  H3O    1.137    1.418    2.248   Ho    76      1nB   0.389000
  1681   O2   -1.159    1.975    2.169   Oh    76      1nB  -0.703000
  1682  H2O   -2.065    1.858    2.483   Ho    76      1nB   0.424000
  1683   O1    0.526   -1.396    2.157   Os    77      1oA  -0.388000
  1684   C1   -0.601   -0.780    1.522   Cg    77      1oA   0.305000
  1685   H1   -1.485   -0.958    2.135   H2    77      1oA   0.000000
  1686   O5   -0.775   -1.469    0.235   Os    77      1oA  -0.424000
  1687   C5    0.199   -1.156   -0.882   Cg    77      1oA   0.054000
  1688   H5    1.185   -1.510   -0.574   H1    77      1oA   0.000000
  1689   C6   -0.112   -1.777   -2.285    C    77      1oA   0.896000
  1690  O6B   -1.273   -1.624   -2.737   O2    77      1oA  -0.822000
  1691  O6A    0.851   -2.297   -2.893   O2    77      1oA  -0.822000
  1692   C4    0.260    0.370   -1.083   Cg    77      1oA   0.267000
  1693   H4    1.001    0.609   -1.847   H1    77      1oA   0.000000
  1694   O4   -1.049    0.805   -1.544   Oh    77      1oA  -0.704000
  1695  H4O   -1.401    0.085   -2.109   Ho    77      1oA   0.429000
  1696   C3    0.654    1.058    0.251   Cg    77      1oA   0.251000
  1697   H3    1.608    0.640    0.578   H1    77      1oA   0.000000
  1698   O3    0.862    2.493    0.080   Oh    77      1oA  -0.725000
  1699  H3O    0.744    2.905    0.943   Ho    77      1oA   0.416000
  1700   C2   -0.404    0.760    1.341   Cg    77      1oA   0.413000
  1701   H2   -1.356    1.208    1.053   H1    77      1oA   0.000000
  1702   O2    0.005    1.349    2.617   Oh    77      1oA  -0.771000
  1703  H2O    0.563    0.684    3.043   Ho    77      1oA   0.431000
  1704   O1   -2.610   -0.858    1.486   Os    78      1oB  -0.388000
  1705   C1   -1.228   -0.655    1.218   Cg    78      1oB   0.301000
  1706   H1   -0.644   -1.036    2.057   H2    78      1oB   0.000000
  1707   C2   -0.919    0.855    0.983   Cg    78      1oB   0.383000
  1708   H2   -1.664    1.281    0.309   H1    78      1oB   0.000000
  1709   C3    0.497    1.045    0.376   Cg    78      1oB   0.259000
  1710   H3    1.233    0.751    1.128   H1    78      1oB   0.000000
  1711   C4    0.709    0.157   -0.875   Cg    78      1oB   0.260000
  1712   H4    1.736    0.284   -1.219   H1    78      1oB   0.000000
  1713   C5    0.447   -1.323   -0.546   Cg    78      1oB   0.049000
  1714   H5    1.146   -1.606    0.243   H1    78      1oB   0.000000
  1715   C6    0.843   -2.231   -1.769    C    78      1oB   0.838000
  1716  O6A    0.072   -3.162   -2.102   O2    78      1oB  -0.794000
  1717  O6B    1.975   -2.025   -2.271   O2    78      1oB  -0.794000
  1718   O5   -0.934   -1.465    0.037   Os    78      1oB  -0.414000
  1719   O4   -0.188    0.588   -1.929   Oh    78      1oB  -0.661000
  1720  H4O   -0.069    1.535   -2.042   Ho    78      1oB   0.402000
  1721   O3    0.770    2.439    0.013   Oh    78      1oB  -0.708000
  1722  H3O    1.720    2.579   -0.002   Ho    78      1oB   0.404000
  1723   O2   -1.012    1.530    2.274   Oh    78      1oB  -0.732000
  1724  H2O   -1.880    1.318    2.631   Ho    78      1oB   0.401000
  1725   C2   -0.770   -1.143    0.091   Cg    79      1pA   0.417000
  1726   O6   -1.068   -0.513   -1.224   Os    79      1pA  -0.598000
  1727   C6    0.010    0.247   -1.901   Cg    79      1pA   0.393000
  1728  H6A    0.805   -0.440   -2.193   H1    79      1pA   0.000000
  1729  H6E   -0.392    0.708   -2.803   H1    79      1pA   0.000000
  1730   C5    0.544    1.322   -0.942   Cg    79      1pA   0.153000
  1731   H5   -0.254    2.041   -0.755   H1    79      1pA   0.000000
  1732   O5    1.623    2.021   -1.583   Oh    79      1pA  -0.693000
  1733  H5O    1.948    2.712   -1.000   Ho    79      1pA   0.428000
  1734   C4    1.013    0.750    0.410   Cg    79      1pA   0.394000
  1735   H4    1.297    1.562    1.080   H1    79      1pA   0.000000
  1736   O4    2.157   -0.109    0.206   Oh    79      1pA  -0.702000
  1737  H4O    2.437   -0.473    1.048   Ho    79      1pA   0.432000
  1738   C3   -0.145   -0.064    1.025   Cg    79      1pA   0.150000
  1739   H3   -0.931    0.656    1.256   H1    79      1pA   0.000000
  1740   O3    0.265   -0.636    2.283   Oh    79      1pA  -0.665000
  1741  H3O    0.955   -1.285    2.128   Ho    79      1pA   0.409000
  1742   C1   -2.072   -1.780    0.613   Cg    79      1pA   0.327000
  1743  H11   -2.437   -2.531   -0.090   H1    79      1pA   0.000000
  1744  H12   -1.901   -2.269    1.573   H1    79      1pA   0.000000
  1745   O1   -3.084   -0.775    0.778   Os    79      1pA  -0.445000
  1746   C2   -1.315   -0.681    0.442   Cg    80      1pB   0.407000
  1747   C3   -1.028    0.844    0.263   Cg    80      1pB   0.180000
  1748   H3   -1.751    1.239   -0.453   H1    80      1pB   0.000000
  1749   C4    0.371    1.136   -0.332   Cg    80      1pB   0.328000
  1750   H4    0.436    2.196   -0.582   H1    80      1pB   0.000000
  1751   C5    0.636    0.299   -1.604   Cg    80      1pB   0.188000
  1752   H5   -0.059    0.618   -2.381   H1    80      1pB   0.000000
  1753   C6    0.402   -1.200   -1.340   Cg    80      1pB   0.364000
  1754  H6A    1.127   -1.589   -0.624   H1    80      1pB   0.000000
  1755  H6E    0.505   -1.764   -2.267   H1    80      1pB   0.000000
  1756   O6   -0.970   -1.389   -0.811   Os    80      1pB  -0.540000
  1757   O5    1.985    0.529   -2.094   Oh    80      1pB  -0.705000
  1758  H5O    2.576    0.614   -1.333   Ho    80      1pB   0.433000
  1759   O4    1.387    0.844    0.665   Oh    80      1pB  -0.698000
  1760  H4O    1.160    1.372    1.442   Ho    80      1pB   0.427000
  1761   O3   -1.212    1.588    1.508   Oh    80      1pB  -0.681000
  1762  H3O   -2.147    1.548    1.751   Ho    80      1pB   0.422000
  1763   C1   -0.639   -1.347    1.695   Cg    80      1pB   0.379000
  1764  H11    0.441   -1.224    1.654   H1    80      1pB   0.000000
  1765  H12   -0.990   -0.864    2.609   H1    80      1pB   0.000000
  1766   O1   -0.915   -2.769    1.793   Os    80      1pB  -0.504000
  1767   O1   -1.628   -1.597   -1.324   Os    81      1qA  -0.388000
  1768   C1   -0.371   -1.007   -1.646   Cg    81      1qA   0.465000
  1769   H1   -0.044   -1.395   -2.611   H1    81      1qA   0.000000
  1770   O5    0.575   -1.453   -0.618   Os    81      1qA  -0.559000
  1771   C5    0.375   -0.937    0.762   Cg    81      1qA   0.234000
  1772   H5   -0.574   -1.326    1.139   H1    81      1qA   0.000000
  1773   C6    1.504   -1.510    1.623   Cg    81      1qA   0.060000
  1774  H61    1.514   -2.600    1.588   Hc    81      1qA   0.000000
  1775  H62    1.394   -1.224    2.670   Hc    81      1qA   0.000000
  1776  H63    2.482   -1.162    1.288   Hc    81      1qA   0.000000
  1777   C4    0.314    0.608    0.749   Cg    81      1qA   0.208000
  1778   H4    1.305    1.002    0.513   H1    81      1qA   0.000000
  1779   O4   -0.071    1.077    2.072   Oh    81      1qA  -0.664000
  1780  H4O    0.675    1.019    2.678   Ho    81      1qA   0.403000
  1781   C3   -0.703    1.136   -0.295   Cg    81      1qA   0.312000
  1782   H3   -1.717    0.886    0.026   H1    81      1qA   0.000000
  1783   O3   -0.571    2.581   -0.329   Oh    81      1qA  -0.697000
  1784  H3O   -0.714    2.907    0.566   Ho    81      1qA   0.424000
  1785   C2   -0.452    0.545   -1.705   Cg    81      1qA   0.281000
  1786   H2    0.509    0.914   -2.067   H1    81      1qA   0.000000
  1787   O2   -1.476    0.956   -2.668   Oh    81      1qA  -0.695000
  1788  H2O   -2.325    0.582   -2.410   Ho    81      1qA   0.422000
  1789   O1   -2.548   -0.829    1.603   Os    82      1qB  -0.388000
  1790   C1   -1.197   -0.601    1.252   Cg    82      1qB   0.391000
  1791   H1   -0.544   -1.017    2.021   H1    82      1qB   0.000000
  1792   C2   -0.936    0.918    1.053   Cg    82      1qB   0.323000
  1793   H2   -1.697    1.330    0.387   H1    82      1qB   0.000000
  1794   C3    0.464    1.134    0.433   Cg    82      1qB   0.300000
  1795   H3    1.222    0.868    1.172   H1    82      1qB   0.000000
  1796   C4    0.686    0.286   -0.844   Cg    82      1qB   0.250000
  1797   H4    0.046    0.664   -1.644   H1    82      1qB   0.000000
  1798   C5    0.361   -1.207   -0.594   Cg    82      1qB   0.271000
  1799   H5    1.082   -1.618    0.116   H1    82      1qB   0.000000
  1800   C6    0.379   -2.069   -1.858   Cg    82      1qB   0.048000
  1801  H61    0.120   -3.105   -1.634   Hc    82      1qB   0.000000
  1802  H62    1.367   -2.080   -2.321   Hc    82      1qB   0.000000
  1803  H63   -0.330   -1.707   -2.604   Hc    82      1qB   0.000000
  1804   O5   -0.997   -1.323   -0.003   Os    82      1qB  -0.535000
  1805   O4    2.071    0.403   -1.258   Oh    82      1qB  -0.713000
  1806  H4O    2.278    1.344   -1.334   Ho    82      1qB   0.421000
  1807   O3    0.623    2.539    0.095   Oh    82      1qB  -0.689000
  1808  H3O    0.407    3.052    0.885   Ho    82      1qB   0.420000
  1809   O2   -1.005    1.616    2.333   Oh    82      1qB  -0.713000
  1810  H2O   -1.853    1.401    2.745   Ho    82      1qB   0.420000
  1811   O1   -0.252   -2.433    0.076   Os    83      1rA  -0.388000
  1812   C1   -1.190   -1.350    0.204   Cg    83      1rA   0.488000
  1813   H1   -2.132   -1.757    0.571   H2    83      1rA   0.000000
  1814   O5   -1.439   -0.700   -1.106   Os    83      1rA  -0.561000
  1815   C5   -0.347    0.113   -1.693   Cg    83      1rA   0.377000
  1816  H5A    0.486   -0.542   -1.956   H1    83      1rA   0.000000
  1817  H5E   -0.707    0.588   -2.605   H1    83      1rA   0.000000
  1818   C4    0.097    1.176   -0.676   Cg    83      1rA   0.122000
  1819   H4   -0.729    1.872   -0.526   H1    83      1rA   0.000000
  1820   O4    1.200    1.914   -1.227   Oh    83      1rA  -0.663000
  1821  H4O    1.936    1.318   -1.387   Ho    83      1rA   0.419000
  1822   C3    0.488    0.585    0.694   Cg    83      1rA   0.345000
  1823   H3    0.696    1.387    1.403   H1    83      1rA   0.000000
  1824   O3    1.671   -0.233    0.554   Oh    83      1rA  -0.737000
  1825  H3O    2.406    0.315    0.268   Ho    83      1rA   0.443000
  1826   C2   -0.683   -0.281    1.201   Cg    83      1rA   0.253000
  1827   H2   -1.520    0.395    1.382   H1    83      1rA   0.000000
  1828   O2   -0.360   -0.881    2.468   Oh    83      1rA  -0.711000
  1829  H2O    0.377   -1.485    2.356   Ho    83      1rA   0.419000
  1830   O1   -2.765   -0.896    0.935   Os    84      1rB  -0.388000
  1831   C1   -1.367   -0.743    0.786   Cg    84      1rB   0.481000
  1832   H1   -0.861   -1.142    1.665   H2    84      1rB   0.000000
  1833   C2   -0.997    0.754    0.534   Cg    84      1rB   0.385000
  1834   H2   -1.581    1.110   -0.316   H1    84      1rB   0.000000
  1835   C3    0.504    0.853    0.161   Cg    84      1rB   0.203000
  1836   H3    0.765    1.893   -0.042   H1    84      1rB   0.000000
  1837   C4    0.757   -0.003   -1.104   Cg    84      1rB   0.236000
  1838   H4    0.146    0.383   -1.920   H1    84      1rB   0.000000
  1839   C5    0.368   -1.482   -0.856   Cg    84      1rB   0.335000
  1840  H5A    1.019   -1.933   -0.106   H1    84      1rB   0.000000
  1841  H5E    0.469   -2.054   -1.778   H1    84      1rB   0.000000
  1842   O5   -1.044   -1.563   -0.391   Os    84      1rB  -0.576000
  1843   O4    2.149    0.095   -1.509   Oh    84      1rB  -0.695000
  1844  H4O    2.328    0.964   -1.884   Ho    84      1rB   0.411000
  1845   O3    1.352    0.355    1.240   Oh    84      1rB  -0.696000
  1846  H3O    2.273    0.373    0.950   Ho    84      1rB   0.428000
  1847   O2   -1.315    1.623    1.662   Oh    84      1rB  -0.732000
  1848  H2O   -2.201    1.410    1.974   Ho    84      1rB   0.414000
  1849   O1    0.531   -2.634    0.456   Os    85      1tA  -0.388000
  1850   C1   -0.450   -1.643    0.794   Cg    85      1tA   0.456000
  1851   H1   -1.280   -2.154    1.286   H2    85      1tA   0.000000
  1852   O5   -0.976   -0.952   -0.410   Os    85      1tA  -0.480000
  1853   C5   -0.053   -0.050   -1.150   Cg    85      1tA   0.157000
  1854   H5    0.803   -0.639   -1.486   H1    85      1tA   0.000000
  1855   C6   -0.773    0.482   -2.397   Cg    85      1tA   0.304000
  1856  H61   -1.708    0.975   -2.126   H1    85      1tA   0.000000
  1857  H62   -0.141    1.200   -2.920   H1    85      1tA   0.000000
  1858   O6   -1.052   -0.617   -3.275   Oh    85      1tA  -0.669000
  1859  H6O   -0.230   -1.044   -3.525   Ho    85      1tA   0.401000
  1860   C4    0.481    1.039   -0.194   Cg    85      1tA   0.434000
  1861   H4    1.239    1.634   -0.706   H1    85      1tA   0.000000
  1862   O4   -0.607    1.908    0.185   Oh    85      1tA  -0.731000
  1863  H4O   -0.980    2.314   -0.600   Ho    85      1tA   0.417000
  1864   C3    1.098    0.378    1.056   Cg    85      1tA   0.124000
  1865   H3    1.974   -0.177    0.718   H1    85      1tA   0.000000
  1866   O3    1.577    1.376    1.975   Oh    85      1tA  -0.687000
  1867  H3O    2.003    0.947    2.720   Ho    85      1tA   0.442000
  1868   C2    0.181   -0.635    1.776   Cg    85      1tA   0.245000
  1869   H2    0.747   -1.164    2.544   H1    85      1tA   0.000000
  1870   O2   -0.912    0.048    2.418   Oh    85      1tA  -0.655000
  1871  H2O   -1.474   -0.593    2.862   Ho    85      1tA   0.436000
  1872   O1   -2.386   -1.449    1.468   Os    86      1tB  -0.388000
  1873   C1   -1.075   -1.179    0.952   Cg    86      1tB   0.306000
  1874   H1   -0.524   -2.121    0.944   H2    86      1tB   0.000000
  1875   C2   -0.349   -0.174    1.872   Cg    86      1tB   0.340000
  1876   H2   -0.232   -0.599    2.870   H1    86      1tB   0.000000
  1877   C3    1.038    0.147    1.271   Cg    86      1tB   0.174000
  1878   H3    1.624   -0.771    1.323   H1    86      1tB   0.000000
  1879   C4    1.019    0.581   -0.214   Cg    86      1tB   0.314000
  1880   H4    2.041    0.639   -0.591   H1    86      1tB   0.000000
  1881   C5    0.215   -0.436   -1.058   Cg    86      1tB   0.031000
  1882   H5    0.760   -1.382   -1.036   H1    86      1tB   0.000000
  1883   C6    0.014   -0.049   -2.530   Cg    86      1tB   0.349000
  1884  H61    0.973    0.178   -2.995   H1    86      1tB   0.000000
  1885  H62   -0.629    0.828   -2.616   H1    86      1tB   0.000000
  1886   O6   -0.591   -1.150   -3.220   Oh    86      1tB  -0.666000
  1887  H6O   -1.434   -1.359   -2.812   Ho    86      1tB   0.406000
  1888   O5   -1.116   -0.656   -0.432   Os    86      1tB  -0.354000
  1889   O4    0.409    1.882   -0.345   Oh    86      1tB  -0.626000
  1890  H4O    0.406    2.143   -1.268   Ho    86      1tB   0.413000
  1891   O3    1.728    1.120    2.076   Oh    86      1tB  -0.678000
  1892  H3O    1.243    1.948    2.059   Ho    86      1tB   0.425000
  1893   O2   -1.132    1.035    1.967   Oh    86      1tB  -0.637000
  1894  H2O   -2.001    0.825    2.316   Ho    86      1tB   0.397000
  1895   O1   -2.798   -1.450    0.755   Os    87      1uA  -0.388000
  1896   C1   -1.592   -0.991    0.175   Cg    87      1uA   0.363000
  1897   H1   -1.451   -1.486   -0.786   H2    87      1uA   0.000000
  1898   O5   -0.553   -1.434    1.107   Os    87      1uA  -0.515000
  1899   C5    0.853   -1.033    0.759   Cg    87      1uA   0.232000
  1900   H5    1.488   -1.384    1.573   H1    87      1uA   0.000000
  1901   C6    1.502   -1.617   -0.571    C    87      1uA   0.697000
  1902  O6B    2.657   -1.223   -0.864   O2    87      1uA  -0.757000
  1903  O6A    0.815   -2.387   -1.279   O2    87      1uA  -0.757000
  1904   C4    0.891    0.507    0.771   Cg    87      1uA   0.223000
  1905   H4    0.628    0.850    1.774   H1    87      1uA   0.000000
  1906   O4    2.235    0.996    0.472   Oh    87      1uA  -0.711000
  1907  H4O    2.672    0.327   -0.102   Ho    87      1uA   0.397000
  1908   C3   -0.144    1.081   -0.232   Cg    87      1uA   0.417000
  1909   H3    0.167    0.812   -1.244   H1    87      1uA   0.000000
  1910   O3   -0.102    2.529   -0.112   Oh    87      1uA  -0.771000
  1911  H3O    0.836    2.752   -0.048   Ho    87      1uA   0.417000
  1912   C2   -1.589    0.559    0.003   Cg    87      1uA   0.259000
  1913   H2   -1.983    1.012    0.916   H1    87      1uA   0.000000
  1914   O2   -2.459    0.936   -1.119   Oh    87      1uA  -0.685000
  1915  H2O   -2.075    0.643   -1.949   Ho    87      1uA   0.385000
  1916   O1   -0.648   -1.534    1.870   Os    88      1uB  -0.388000
  1917   C1    0.656   -1.204    1.378   Cg    88      1uB   0.278000
  1918   H1    1.397   -1.672    2.026   H2    88      1uB   0.000000
  1919   C2    0.918    0.330    1.335   Cg    88      1uB   0.289000
  1920   H2    1.956    0.470    1.031   H1    88      1uB   0.000000
  1921   C3    0.023    1.035    0.292   Cg    88      1uB   0.286000
  1922   H3   -1.027    0.949    0.576   H1    88      1uB   0.000000
  1923   C4    0.247    0.395   -1.105   Cg    88      1uB   0.308000
  1924   H4    1.292    0.549   -1.381   H1    88      1uB   0.000000
  1925   C5   -0.013   -1.129   -1.092   Cg    88      1uB   0.194000
  1926   H5    0.374   -1.531   -2.030   H1    88      1uB   0.000000
  1927   C6   -1.559   -1.457   -1.109    C    88      1uB   0.750000
  1928  O6A   -1.989   -2.262   -0.252   O2    88      1uB  -0.783000
  1929  O6B   -2.271   -0.868   -1.958   O2    88      1uB  -0.783000
  1930   O5    0.809   -1.751    0.014   Os    88      1uB  -0.430000
  1931   O4   -0.567    1.071   -2.105   Oh    88      1uB  -0.745000
  1932  H4O   -1.382    0.528   -2.226   Ho    88      1uB   0.422000
  1933   O3    0.380    2.449    0.228   Oh    88      1uB  -0.755000
  1934  H3O   -0.013    2.778   -0.593   Ho    88      1uB   0.421000
  1935   O2    0.776    0.959    2.640   Oh    88      1uB  -0.680000
  1936  H2O    0.640    1.896    2.460   Ho    88      1uB   0.422000
  1937   O1   -1.354   -1.955   -0.216   Os    89      1vA  -0.388000
  1938   C1   -0.118   -1.339   -0.590   Cg    89      1vA   0.389000
  1939   H1    0.139   -1.676   -1.595   H2    89      1vA   0.000000
  1940   O5    0.911   -1.831    0.337   Os    89      1vA  -0.466000
  1941   C5    0.899   -1.301    1.737   Cg    89      1vA   0.112000
  1942   H5   -0.026   -1.645    2.202   H1    89      1vA   0.000000
  1943   C6    2.051   -1.914    2.561   Cg    89      1vA   0.362000
  1944  H61    1.986   -1.570    3.593   H1    89      1vA   0.000000
  1945  H62    1.973   -3.002    2.563   H1    89      1vA   0.000000
  1946   O6    3.327   -1.537    2.024   Oh    89      1vA  -0.711000
  1947  H6O    3.204   -0.675    1.592   Ho    89      1vA   0.424000
  1948   C4    0.854    0.247    1.741   Cg    89      1vA   0.326000
  1949   H4    0.708    0.596    2.764   H1    89      1vA   0.000000
  1950   O4    2.107    0.787    1.250   Oh    89      1vA  -0.701000
  1951  H4O    1.968    1.736    1.123   Ho    89      1vA   0.442000
  1952   C3   -0.300    0.772    0.855   Cg    89      1vA   0.176000
  1953   H3   -1.241    0.434    1.293   H1    89      1vA   0.000000
  1954   O3   -0.303    2.233    0.893   Oh    89      1vA  -0.678000
  1955  H3O   -1.033    2.583    0.368   Ho    89      1vA   0.425000
  1956   C2   -0.207    0.222   -0.592   Cg    89      1vA   0.399000
  1957   H2    0.716    0.602   -1.036   H1    89      1vA   0.000000
  1958   N2   -1.341    0.709   -1.414   Ng    89      1vA  -0.595000
  1959  H2N   -2.248    0.743   -0.977    H    89      1vA   0.238000
  1960  C2N   -1.266    0.833   -2.742    C    89      1vA   0.625000
  1961  O2N   -0.222    0.631   -3.354    O    89      1vA  -0.605000
  1962  CME   -2.561    1.253   -3.464   Cg    89      1vA   0.032000
  1963  H1M   -2.796    2.291   -3.222   Hc    89      1vA   0.000000
  1964  H2M   -2.438    1.159   -4.543   Hc    89      1vA   0.000000
  1965  H3M   -3.388    0.614   -3.150   Hc    89      1vA   0.000000
  1966   O1   -2.199   -1.427    0.922   Os    90      1vB  -0.388000
  1967   C1   -0.835   -1.167    0.595   Cg    90      1vB   0.305000
  1968   H1   -0.214   -1.544    1.409   H2    90      1vB   0.000000
  1969   C2   -0.548    0.360    0.382   Cg    90      1vB   0.544000
  1970   H2   -1.231    0.727   -0.385   H1    90      1vB   0.000000
  1971   C3    0.915    0.530   -0.128   Cg    90      1vB   0.152000
  1972   H3    1.590    0.168    0.651   H1    90      1vB   0.000000
  1973   C4    1.166   -0.302   -1.404   Cg    90      1vB   0.253000
  1974   H4    2.211   -0.200   -1.700   H1    90      1vB   0.000000
  1975   C5    0.846   -1.795   -1.172   Cg    90      1vB   0.136000
  1976   H5    1.553   -2.172   -0.429   H1    90      1vB   0.000000
  1977   C6    0.993   -2.644   -2.447   Cg    90      1vB   0.353000
  1978  H61    1.978   -2.494   -2.890   H1    90      1vB   0.000000
  1979  H62    0.236   -2.374   -3.184   H1    90      1vB   0.000000
  1980   O6    0.844   -4.030   -2.102   Oh    90      1vB  -0.714000
  1981  H6O   -0.023   -4.140   -1.700   Ho    90      1vB   0.427000
  1982   O5   -0.533   -1.949   -0.615   Os    90      1vB  -0.408000
  1983   O4    0.336    0.212   -2.469   Oh    90      1vB  -0.690000
  1984  H4O    0.360    1.179   -2.428   Ho    90      1vB   0.440000
  1985   O3    1.273    1.921   -0.398   Oh    90      1vB  -0.665000
  1986  H3O    2.219    2.067   -0.290   Ho    90      1vB   0.415000
  1987   N2   -0.754    1.120    1.636   Ng    90      1vB  -0.686000
  1988  H2N   -0.364    0.748    2.485    H    90      1vB   0.254000
  1989  C2N   -1.461    2.253    1.687    C    90      1vB   0.586000
  1990  CME   -1.572    2.927    3.070   Cg    90      1vB   0.056000
  1991  H1M   -0.697    3.556    3.239   Hc    90      1vB   0.000000
  1992  H2M   -2.469    3.547    3.111   Hc    90      1vB   0.000000
  1993  H3M   -1.632    2.176    3.861   Hc    90      1vB   0.000000
  1994  O2N   -1.987    2.744    0.693    O    90      1vB  -0.564000
  1995   O1   -2.337   -1.857   -0.422   Os    91      1wA  -0.388000
  1996   C1   -1.081   -1.327   -0.827   Cg    91      1wA   0.462100
  1997   H1   -0.853   -1.715   -1.820   H2    91      1wA   0.000000
  1998   O5   -0.069   -1.821    0.116   Os    91      1wA  -0.541500
  1999   C5   -0.106   -1.302    1.518   Cg    91      1wA   0.242100
  2000   H5   -1.010   -1.704    1.979   H1    91      1wA   0.000000
  2001   C6    1.094   -1.857    2.316   Cg    91      1wA   0.299500
  2002  H61    0.945   -1.681    3.382   H1    91      1wA   0.000000
  2003  H62    1.168   -2.934    2.164   H1    91      1wA   0.000000
  2004   O6    2.339   -1.243    1.920   Oh    91      1wA  -0.661800
  2005  H6O    2.446   -0.402    2.374   Ho    91      1wA   0.395900
  2006   C4   -0.206    0.241    1.543   Cg    91      1wA   0.321300
  2007   H4    0.758    0.669    1.265   H1    91      1wA   0.000000
  2008   O4   -0.522    0.665    2.902   Oh    91      1wA  -0.730500
  2009  H4O   -1.414    0.395    3.150   Ho    91      1wA   0.442400
  2010   C3   -1.281    0.786    0.568   Cg    91      1wA   0.252000
  2011   H3   -2.264    0.494    0.939   H1    91      1wA   0.000000
  2012   O3   -1.229    2.240    0.553   Oh    91      1wA  -0.698700
  2013  H3O   -1.196    2.572    1.459   Ho    91      1wA   0.415900
  2014   C2   -1.115    0.226   -0.866   Cg    91      1wA   0.275000
  2015   H2   -1.979    0.533   -1.459   H1    91      1wA   0.000000
  2016   N2    0.089    0.773   -1.535   Ng    91      1wA  -0.475100
  2017  H2N    0.759    1.260   -0.962    H    91      1wA   0.214200
  2018  C2N    0.292    0.727   -2.854    C    91      1wA   0.590900
  2019  O2N   -0.490    0.167   -3.619    O    91      1wA  -0.575700
  2020  CME    1.582    1.402   -3.355   Cg    91      1wA  -0.034000
  2021  H1M    1.575    2.459   -3.087   Hc    91      1wA   0.000000
  2022  H2M    1.657    1.314   -4.440   Hc    91      1wA   0.000000
  2023  H3M    2.450    0.921   -2.901   Hc    91      1wA   0.000000
  2024   O1   -1.933   -1.268    1.897   Os    92      1wB  -0.388000
  2025   C1   -0.585   -1.034    1.528   Cg    92      1wB   0.387000
  2026   H1    0.060   -1.374    2.339   H2    92      1wB   0.000000
  2027   C2   -0.324    0.470    1.222   Cg    92      1wB   0.294000
  2028   H2   -0.434    1.025    2.156   H1    92      1wB   0.000000
  2029   C3    1.144    0.621    0.747   Cg    92      1wB   0.217000
  2030   H3    1.794    0.347    1.581   H1    92      1wB   0.000000
  2031   C4    1.463   -0.303   -0.457   Cg    92      1wB   0.277000
  2032   H4    0.914    0.047   -1.334   H1    92      1wB   0.000000
  2033   C5    1.082   -1.776   -0.168   Cg    92      1wB   0.321000
  2034   H5    1.741   -2.166    0.610   H1    92      1wB   0.000000
  2035   C6    1.208   -2.675   -1.415   Cg    92      1wB   0.247000
  2036  H61    2.234   -2.673   -1.783   H1    92      1wB   0.000000
  2037  H62    0.558   -2.307   -2.210   H1    92      1wB   0.000000
  2038   O6    0.832   -4.030   -1.097   Oh    92      1wB  -0.663000
  2039  H6O   -0.060   -4.030   -0.737   Ho    92      1wB   0.413000
  2040   O5   -0.326   -1.847    0.338   Os    92      1wB  -0.498000
  2041   O4    2.881   -0.232   -0.739   Oh    92      1wB  -0.743000
  2042  H4O    3.124    0.705   -0.769   Ho    92      1wB   0.439000
  2043   O3    1.439    2.003    0.390   Oh    92      1wB  -0.658000
  2044  H3O    0.842    2.607    0.863   Ho    92      1wB   0.413000
  2045   N2   -1.283    1.026    0.234   Ng    92      1wB  -0.558000
  2046  H2N   -1.653    0.395   -0.458    H    92      1wB   0.265000
  2047  C2N   -1.702    2.296    0.246    C    92      1wB   0.585000
  2048  CME   -2.753    2.690   -0.814   Cg    92      1wB   0.056000
  2049  H1M   -2.271    3.275   -1.597   Hc    92      1wB   0.000000
  2050  H2M   -3.538    3.290   -0.352   Hc    92      1wB   0.000000
  2051  H3M   -3.210    1.806   -1.264   Hc    92      1wB   0.000000
  2052  O2N   -1.245    3.113    1.042    O    92      1wB  -0.600000
  2053   O1   -1.456   -1.773   -0.900   Os    93      1xA  -0.388000
  2054   C1   -0.207   -1.227   -1.297   Cg    93      1xA   0.482000
  2055   H1    0.008   -1.545   -2.317   H2    93      1xA   0.000000
  2056   O5    0.800   -1.799   -0.402   Os    93      1xA  -0.588000
  2057   C5    0.778   -1.357    1.019   Cg    93      1xA   0.335000
  2058  H5A   -0.125   -1.743    1.495   H1    93      1xA   0.000000
  2059  H5E    1.637   -1.785    1.536   H1    93      1xA   0.000000
  2060   C4    0.816    0.178    1.121   Cg    93      1xA   0.247000
  2061   H4    1.794    0.531    0.791   H1    93      1xA   0.000000
  2062   O4    0.627    0.555    2.511   Oh    93      1xA  -0.720000
  2063  H4O    0.590    1.521    2.556   Ho    93      1xA   0.420000
  2064   C3   -0.288    0.810    0.241   Cg    93      1xA   0.359000
  2065   H3   -1.270    0.573    0.655   H1    93      1xA   0.000000
  2066   O3   -0.116    2.251    0.245   Oh    93      1xA  -0.712000
  2067  H3O   -0.651    2.605   -0.477   Ho    93      1xA   0.421000
  2068   C2   -0.218    0.323   -1.222   Cg    93      1xA   0.197000
  2069   H2    0.713    0.683   -1.662   H1    93      1xA   0.000000
  2070   O2   -1.325    0.878   -2.002   Oh    93      1xA  -0.656000
  2071  H2O   -2.106    0.319   -1.890   Ho    93      1xA   0.409000
  2072   O1   -2.500   -1.225    1.241   Os    94      1xB  -0.388000
  2073   C1   -1.142   -0.991    0.888   Cg    94      1xB   0.248000
  2074   H1   -0.499   -1.382    1.678   H2    94      1xB   0.000000
  2075   C2   -0.888    0.530    0.673   Cg    94      1xB   0.425000
  2076   H2   -1.656    0.935    0.011   H1    94      1xB   0.000000
  2077   C3    0.510    0.781    0.059   Cg    94      1xB   0.228000
  2078   H3    1.273    0.535    0.801   H1    94      1xB   0.000000
  2079   C4    0.736   -0.086   -1.201   Cg    94      1xB   0.286000
  2080   H4    0.075    0.250   -2.001   H1    94      1xB   0.000000
  2081   C5    0.466   -1.577   -0.919   Cg    94      1xB   0.303000
  2082  H5A    1.202   -1.972   -0.215   H1    94      1xB   0.000000
  2083  H5E    0.535   -2.153   -1.842   H1    94      1xB   0.000000
  2084   O5   -0.890   -1.742   -0.345   Os    94      1xB  -0.447000
  2085   O4    2.108    0.057   -1.638   Oh    94      1xB  -0.723000
  2086  H4O    2.291    1.003   -1.707   Ho    94      1xB   0.430000
  2087   O3    0.651    2.186   -0.301   Oh    94      1xB  -0.682000
  2088  H3O    0.476    2.719    0.487   Ho    94      1xB   0.427000
  2089   O2   -0.964    1.210    1.954   Oh    94      1xB  -0.699000
  2090  H2O   -1.782    0.922    2.377   Ho    94      1xB   0.398000
  2091   O1   -1.533   -1.980   -0.431   Os    95      1yA  -0.388000
  2092   C1   -0.235   -1.514   -0.768   Cg    95      1yA   0.468000
  2093   H1    0.024   -1.908   -1.751   H2    95      1yA   0.000000
  2094   O5    0.683   -2.090    0.214   Os    95      1yA  -0.568000
  2095   C5    0.681   -1.521    1.602   Cg    95      1yA   0.246000
  2096   H5   -0.276   -1.787    2.056   H1    95      1yA   0.000000
  2097   C6    1.790   -2.183    2.447   Cg    95      1yA   0.328000
  2098  H61    1.677   -3.267    2.415   H1    95      1yA   0.000000
  2099  H62    1.705   -1.871    3.488   H1    95      1yA   0.000000
  2100   O6    3.107   -1.840    1.964   Oh    95      1yA  -0.688000
  2101  H6O    3.770   -2.273    2.507   Ho    95      1yA   0.421000
  2102   C4    0.788    0.019    1.576   Cg    95      1yA   0.322000
  2103   H4    1.798    0.315    1.288   H1    95      1yA   0.000000
  2104   O4    0.510    0.524    2.905   Oh    95      1yA  -0.733000
  2105  H4O    0.442    1.485    2.817   Ho    95      1yA   0.449000
  2106   C3   -0.223    0.667    0.601   Cg    95      1yA   0.165000
  2107   H3   -1.234    0.538    0.992   H1    95      1yA   0.000000
  2108   O3    0.068    2.093    0.530   Oh    95      1yA  -0.630000
  2109  H3O    0.043    2.391   -0.401   Ho    95      1yA   0.413000
  2110   C2   -0.154    0.041   -0.812   Cg    95      1yA   0.245000
  2111   H2    0.818    0.296   -1.240   H1    95      1yA   0.000000
  2112   N2   -1.197    0.610   -1.705   Ng    95      1yA  -0.552000
  2113  H2N   -2.058    0.087   -1.767    H    95      1yA   0.236000
  2114  C2N   -1.090    1.773   -2.358    C    95      1yA   0.588000
  2115  O2N   -0.126    2.514   -2.190    O    95      1yA  -0.579000
  2116  CME   -2.239    2.148   -3.319   Cg    95      1yA   0.063000
  2117  H1M   -2.708    3.071   -2.979   Hc    95      1yA   0.000000
  2118  H2M   -1.837    2.302   -4.321   Hc    95      1yA   0.000000
  2119  H3M   -2.995    1.362   -3.361   Hc    95      1yA   0.000000
  2120   O1   -2.255   -1.300    0.895   Os    96      1yB  -0.388000
  2121   C1   -0.887   -1.101    0.551   Cg    96      1yB   0.287000
  2122   H1   -0.271   -1.501    1.358   H2    96      1yB   0.000000
  2123   C2   -0.551    0.411    0.321   Cg    96      1yB   0.480000
  2124   H2   -1.233    0.788   -0.444   H1    96      1yB   0.000000
  2125   C3    0.901    0.545   -0.219   Cg    96      1yB   0.180000
  2126   H3    1.594    0.222    0.560   H1    96      1yB   0.000000
  2127   C4    1.106   -0.341   -1.470   Cg    96      1yB   0.302000
  2128   H4    0.484    0.030   -2.287   H1    96      1yB   0.000000
  2129   C5    0.760   -1.817   -1.188   Cg    96      1yB   0.208000
  2130   H5    1.435   -2.202   -0.421   H1    96      1yB   0.000000
  2131   C6    0.883   -2.703   -2.441   Cg    96      1yB   0.289000
  2132  H61    1.905   -2.689   -2.821   H1    96      1yB   0.000000
  2133  H62    0.219   -2.341   -3.228   H1    96      1yB   0.000000
  2134   O6    0.528   -4.059   -2.114   Oh    96      1yB  -0.689000
  2135  H6O   -0.348   -4.056   -1.720   Ho    96      1yB   0.424000
  2136   O5   -0.636   -1.888   -0.662   Os    96      1yB  -0.433000
  2137   O4    2.492   -0.261   -1.866   Oh    96      1yB  -0.716000
  2138  H4O    2.706    0.679   -1.946   Ho    96      1yB   0.436000
  2139   O3    1.233    1.924   -0.573   Oh    96      1yB  -0.681000
  2140  H3O    1.253    2.482    0.213   Ho    96      1yB   0.423000
  2141   N2   -0.725    1.193    1.570   Ng    96      1yB  -0.722000
  2142  H2N   -0.371    0.794    2.423    H    96      1yB   0.300000
  2143  C2N   -1.493    2.284    1.649    C    96      1yB   0.648000
  2144  CME   -1.650    2.914    3.047   Cg    96      1yB   0.034000
  2145  H1M   -0.792    3.555    3.253   Hc    96      1yB   0.000000
  2146  H2M   -2.559    3.516    3.087   Hc    96      1yB   0.000000
  2147  H3M   -1.711    2.139    3.814   Hc    96      1yB   0.000000
  2148  O2N   -2.018    2.784    0.660    O    96      1yB  -0.576000
  2149   O1    0.343   -1.481    2.037   Os    97      1zA  -0.388000
  2150   C1   -0.787   -0.791    1.517   Cg    97      1zA   0.398000
  2151   H1   -1.644   -0.989    2.161   H2    97      1zA   0.000000
  2152   O5   -1.044   -1.369    0.203   Os    97      1zA  -0.544000
  2153   C5   -0.041   -1.106   -0.902   Cg    97      1zA   0.187000
  2154   H5    0.893   -1.563   -0.567   H1    97      1zA   0.000000
  2155   C6   -0.312   -1.779   -2.325    C    97      1zA   0.798000
  2156  O6B   -1.137   -2.718   -2.393   O2    97      1zA  -0.787000
  2157  O6A    0.366   -1.366   -3.303   O2    97      1zA  -0.787000
  2158   C4    0.227    0.415   -1.029   Cg    97      1zA   0.193000
  2159   H4   -0.637    0.880   -1.507   H1    97      1zA   0.000000
  2160   O4    1.383    0.581   -1.892   Oh    97      1zA  -0.682000
  2161  H4O    1.219    0.008   -2.674   Ho    97      1zA   0.422000
  2162   C3    0.492    1.107    0.338   Cg    97      1zA   0.300000
  2163   H3    1.480    0.813    0.699   H1    97      1zA   0.000000
  2164   O3    0.465    2.557    0.186   Oh    97      1zA  -0.743000
  2165  H3O    0.517    2.934    1.070   Ho    97      1zA   0.439000
  2166   C2   -0.558    0.739    1.413   Cg    97      1zA   0.326000
  2167   H2   -1.509    1.195    1.134   H1    97      1zA   0.000000
  2168   O2   -0.167    1.282    2.719   Oh    97      1zA  -0.732000
  2169  H2O    0.449    0.653    3.114   Ho    97      1zA   0.406000
  2170   O1   -2.738   -0.842    1.440   Os    98      1zB  -0.388000
  2171   C1   -1.360   -0.598    1.177   Cg    98      1zB   0.251000
  2172   H1   -0.764   -1.009    1.993   H2    98      1zB   0.000000
  2173   C2   -1.081    0.922    1.000   Cg    98      1zB   0.411000
  2174   H2   -1.816    1.343    0.311   H1    98      1zB   0.000000
  2175   C3    0.344    1.173    0.441   Cg    98      1zB   0.266000
  2176   H3    1.072    0.954    1.226   H1    98      1zB   0.000000
  2177   C4    0.658    0.286   -0.792   Cg    98      1zB   0.267000
  2178   H4    0.064    0.628   -1.642   H1    98      1zB   0.000000
  2179   C5    0.354   -1.208   -0.561   Cg    98      1zB   0.075000
  2180   H5    1.013   -1.567    0.232   H1    98      1zB   0.000000
  2181   C6    0.726   -2.070   -1.838    C    98      1zB   0.893000
  2182  O6A   -0.043   -3.001   -2.169   O2    98      1zB  -0.818000
  2183  O6B    1.795   -1.784   -2.436   O2    98      1zB  -0.818000
  2184   O5   -1.052   -1.330   -0.049   Os    98      1zB  -0.413000
  2185   O4    2.061    0.434   -1.124   Oh    98      1zB  -0.733000
  2186  H4O    2.258   -0.299   -1.755   Ho    98      1zB   0.429000
  2187   O3    0.508    2.564    0.032   Oh    98      1zB  -0.701000
  2188  H3O    1.358    2.603   -0.424   Ho    98      1zB   0.403000
  2189   O2   -1.249    1.547    2.306   Oh    98      1zB  -0.740000
  2190  H2O   -2.106    1.255    2.633   Ho    98      1zB   0.422000
  2191   C1   -1.125   -1.542    0.355   Cg    99      2aA   0.448000
  2192   H1   -2.045   -1.932    0.794   H2    99      2aA   0.000000
  2193   O5   -1.469   -0.874   -0.925   Os    99      2aA  -0.564000
  2194   C5   -0.419   -0.073   -1.590   Cg    99      2aA   0.379000
  2195  H5A    0.398   -0.728   -1.896   H1    99      2aA   0.000000
  2196  H5E   -0.837    0.393   -2.483   H1    99      2aA   0.000000
  2197   C4    0.074    0.996   -0.609   Cg    99      2aA   0.245000
  2198   H4   -0.754    1.675   -0.400   H1    99      2aA   0.000000
  2199   O4    1.119    1.759   -1.234   Oh    99      2aA  -0.748000
  2200  H4O    1.866    1.185   -1.418   Ho    99      2aA   0.434000
  2201   C3    0.571    0.404    0.726   Cg    99      2aA   0.335000
  2202   H3    0.809    1.208    1.423   H1    99      2aA   0.000000
  2203   O3    1.767   -0.369    0.507   Oh    99      2aA  -0.772000
  2204  H3O    2.076   -0.725    1.344   Ho    99      2aA   0.461000
  2205   C2   -0.473   -0.549    1.346   Cg    99      2aA   0.268000
  2206   H2   -0.028   -1.094    2.181   H1    99      2aA   0.000000
  2207   O2   -1.530    0.265    1.879   Os    99      2aA  -0.486000
  2208   C1   -1.650   -0.762    0.937   Cg   100      2aB   0.379000
  2209   H1   -1.114   -1.167    1.797   H2   100      2aB   0.000000
  2210   C2   -1.315    0.755    0.762   Cg   100      2aB   0.300000
  2211   H2   -1.497    1.278    1.702   H1   100      2aB   0.000000
  2212   C3    0.164    0.909    0.351   Cg   100      2aB   0.297000
  2213   H3    0.374    1.956    0.129   H1   100      2aB   0.000000
  2214   C4    0.501    0.045   -0.892   Cg   100      2aB   0.224000
  2215   H4   -0.074    0.411   -1.744   H1   100      2aB   0.000000
  2216   C5    0.125   -1.437   -0.658   Cg   100      2aB   0.356000
  2217  H5A    0.755   -1.874    0.118   H1   100      2aB   0.000000
  2218  H5E    0.275   -2.008   -1.575   H1   100      2aB   0.000000
  2219   O5   -1.299   -1.546   -0.250   Os   100      2aB  -0.529000
  2220   O4    1.914    0.165   -1.228   Oh   100      2aB  -0.730000
  2221  H4O    2.057    0.941   -1.781   Ho   100      2aB   0.440000
  2222   O3    1.008    0.509    1.466   Oh   100      2aB  -0.668000
  2223  H3O    1.915    0.451    1.140   Ho   100      2aB   0.407000
  2224   O2   -2.138    1.373   -0.273   Os   100      2aB  -0.476000
  2225   O2    0.414   -1.656    1.435   Os   101      2bA  -0.388000
  2226   C2   -0.609   -0.998    0.659   Cg   101      2bA   0.130000
  2227   O6   -0.464   -1.538   -0.715   Os   101      2bA  -0.507000
  2228   C6    0.791   -1.212   -1.449   Cg   101      2bA   0.341000
  2229  H6A    1.622   -1.743   -0.982   H1   101      2bA   0.000000
  2230  H6E    0.703   -1.568   -2.476   H1   101      2bA   0.000000
  2231   C5    1.062    0.308   -1.439   Cg   101      2bA   0.224000
  2232   H5    0.320    0.794   -2.073   H1   101      2bA   0.000000
  2233   O5    2.380    0.546   -2.010   Oh   101      2bA  -0.690000
  2234  H5O    2.437    1.459   -2.307   Ho   101      2bA   0.429000
  2235   C4    0.979    0.895   -0.006   Cg   101      2bA   0.335000
  2236   H4    1.780    0.489    0.614   H1   101      2bA   0.000000
  2237   O4    1.132    2.346   -0.071   Oh   101      2bA  -0.724000
  2238  H4O    2.070    2.559   -0.003   Ho   101      2bA   0.421000
  2239   C3   -0.396    0.545    0.613   Cg   101      2bA   0.372000
  2240   H3   -1.163    0.981   -0.031   H1   101      2bA   0.000000
  2241   O3   -0.563    1.137    1.932   Oh   101      2bA  -0.716000
  2242  H3O   -0.242    2.044    1.878   Ho   101      2bA   0.430000
  2243   C1   -1.995   -1.388    1.259   Cg   101      2bA   0.428000
  2244  H11   -2.195   -2.443    1.074   H1   101      2bA   0.000000
  2245  H12   -1.992   -1.235    2.339   H1   101      2bA   0.000000
  2246   O1   -3.068   -0.604    0.695   Oh   101      2bA  -0.678000
  2247  H1O   -3.003    0.281    1.063   Ho   101      2bA   0.399000
  2248   O2   -2.583   -0.780    0.549   Os   102      2bB  -0.388000
  2249   C2   -1.169   -0.612    0.371   Cg   102      2bB   0.227000
  2250   C1   -0.447   -1.228    1.613   Cg   102      2bB   0.281000
  2251  H11    0.623   -1.022    1.565   H1   102      2bB   0.000000
  2252  H12   -0.828   -0.782    2.533   H1   102      2bB   0.000000
  2253   O1   -0.631   -2.658    1.685   Oh   102      2bB  -0.626000
  2254  H1O   -0.178   -3.000    2.459   Ho   102      2bB   0.395000
  2255   C3   -0.869    0.909    0.168   Cg   102      2bB   0.464000
  2256   H3   -1.569    1.307   -0.570   H1   102      2bB   0.000000
  2257   C4    0.573    1.169   -0.338   Cg   102      2bB   0.108000
  2258   H4    1.280    0.909    0.453   H1   102      2bB   0.000000
  2259   C5    0.874    0.316   -1.590   Cg   102      2bB   0.340000
  2260   H5    0.286    0.683   -2.432   H1   102      2bB   0.000000
  2261   C6    0.566   -1.181   -1.378   Cg   102      2bB   0.311000
  2262  H6A    1.262   -1.618   -0.660   H1   102      2bB   0.000000
  2263  H6E    0.666   -1.723   -2.319   H1   102      2bB   0.000000
  2264   O6   -0.821   -1.341   -0.871   Os   102      2bB  -0.477000
  2265   O5    2.277    0.462   -1.901   Oh   102      2bB  -0.720000
  2266  H5O    2.463    1.409   -1.878   Ho   102      2bB   0.429000
  2267   O4    0.752    2.580   -0.667   Oh   102      2bB  -0.675000
  2268  H4O    0.507    3.111    0.104   Ho   102      2bB   0.435000
  2269   O3   -1.063    1.634    1.412   Oh   102      2bB  -0.730000
  2270  H3O   -1.970    1.458    1.691   Ho   102      2bB   0.432000
  2271   O2    0.240   -1.591    1.682   Os   103      2cA  -0.388000
  2272   C2   -0.626   -0.878    0.804   Cg   103      2cA   0.345000
  2273   O6   -0.355   -1.464   -0.531   Os   103      2cA  -0.620000
  2274   C6    0.910   -1.108   -1.218   Cg   103      2cA   0.437000
  2275  H6A    1.754   -1.530   -0.671   H1   103      2cA   0.000000
  2276  H6E    0.903   -1.548   -2.216   H1   103      2cA   0.000000
  2277   C5    1.030    0.422   -1.321   Cg   103      2cA   0.195000
  2278   H5    0.178    0.802   -1.885   H1   103      2cA   0.000000
  2279   O5    2.244    0.817   -2.035   Oh   103      2cA  -0.709000
  2280  H5O    2.103    0.788   -2.988   Ho   103      2cA   0.415000
  2281   C4    1.001    1.039    0.094   Cg   103      2cA   0.367000
  2282   H4    1.043    2.125   -0.003   H1   103      2cA   0.000000
  2283   O4    2.178    0.634    0.837   Oh   103      2cA  -0.720000
  2284  H4O    2.946    0.816    0.282   Ho   103      2cA   0.394000
  2285   C3   -0.282    0.657    0.877   Cg   103      2cA   0.247000
  2286   H3   -0.154    0.937    1.925   H1   103      2cA   0.000000
  2287   O3   -1.377    1.480    0.354   Oh   103      2cA  -0.655000
  2288  H3O   -1.298    2.380    0.693   Ho   103      2cA   0.406000
  2289   C1   -2.087   -1.215    1.259   Cg   103      2cA   0.386000
  2290  H11   -2.227   -2.296    1.304   H1   103      2cA   0.000000
  2291  H12   -2.255   -0.818    2.262   H1   103      2cA   0.000000
  2292   O1   -3.090   -0.663    0.376   Oh   103      2cA  -0.696000
  2293  H1O   -2.779    0.216    0.118   Ho   103      2cA   0.402000
  2294   O2   -2.614   -0.600    0.613   Os   104      2cB  -0.388000
  2295   C2   -1.196   -0.461    0.415   Cg   104      2cB   0.244000
  2296   C1   -0.511   -1.122    1.654   Cg   104      2cB   0.297000
  2297  H11    0.572   -1.050    1.581   H1   104      2cB   0.000000
  2298  H12   -0.817   -0.611    2.568   H1   104      2cB   0.000000
  2299   O1   -0.850   -2.524    1.770   Oh   104      2cB  -0.669000
  2300  H1O   -0.396   -2.902    2.527   Ho   104      2cB   0.401000
  2301   C3   -0.851    1.062    0.265   Cg   104      2cB   0.317000
  2302   H3   -0.932    1.548    1.239   H1   104      2cB   0.000000
  2303   C4    0.561    1.312   -0.327   Cg   104      2cB   0.344000
  2304   H4    0.659    2.364   -0.596   H1   104      2cB   0.000000
  2305   C5    0.820    0.452   -1.590   Cg   104      2cB   0.195000
  2306   H5    0.156    0.798   -2.383   H1   104      2cB   0.000000
  2307   C6    0.523   -1.038   -1.344   Cg   104      2cB   0.365000
  2308  H6A    1.228   -1.458   -0.625   H1   104      2cB   0.000000
  2309  H6E    0.617   -1.596   -2.276   H1   104      2cB   0.000000
  2310   O6   -0.859   -1.188   -0.830   Os   104      2cB  -0.460000
  2311   O5    2.189    0.624   -2.059   Oh   104      2cB  -0.684000
  2312  H5O    2.788    0.593   -1.303   Ho   104      2cB   0.415000
  2313   O4    1.572    1.028    0.685   Oh   104      2cB  -0.698000
  2314  H4O    1.773    1.842    1.163   Ho   104      2cB   0.417000
  2315   O3   -1.801    1.706   -0.626   Oh   104      2cB  -0.697000
  2316  H3O   -2.631    1.221   -0.520   Ho   104      2cB   0.407000
  2317   C1   -0.443   -1.340   -1.446   Cg   105      2dA   0.398000
  2318   H1   -0.199   -1.679   -2.452   H2   105      2dA   0.000000
  2319   O5    0.516   -1.944   -0.509   Os   105      2dA  -0.487000
  2320   C5    0.534   -1.428    0.888   Cg   105      2dA   0.275000
  2321  H5A   -0.374   -1.766    1.394   H1   105      2dA   0.000000
  2322  H5E    1.386   -1.858    1.414   H1   105      2dA   0.000000
  2323   C4    0.611    0.113    0.926   Cg   105      2dA   0.351000
  2324   H4    1.590    0.443    0.574   H1   105      2dA   0.000000
  2325   O4    0.432    0.547    2.295   Oh   105      2dA  -0.711000
  2326  H4O    0.310    1.505    2.258   Ho   105      2dA   0.422000
  2327   C3   -0.507    0.726    0.054   Cg   105      2dA   0.184000
  2328   H3   -1.472    0.413    0.455   H1   105      2dA   0.000000
  2329   O3   -0.471    2.183    0.114   Oh   105      2dA  -0.655000
  2330  H3O   -1.060    2.556   -0.549   Ho   105      2dA   0.417000
  2331   C2   -0.413    0.218   -1.407   Cg   105      2dA   0.246000
  2332   H2   -1.255    0.611   -1.978   H1   105      2dA   0.000000
  2333   O2    0.815    0.698   -2.030   Os   105      2dA  -0.440000
  2334   C1    1.495   -1.090    1.006   Cg   106      2dB   0.448000
  2335   H1    1.821   -1.636    0.119   H2   106      2dB   0.000000
  2336   C2    1.441    0.420    0.690   Cg   106      2dB   0.226000
  2337   H2    2.424    0.775    0.377   H1   106      2dB   0.000000
  2338   C3    0.406    0.665   -0.428   Cg   106      2dB   0.201000
  2339   H3    0.775    0.193   -1.341   H1   106      2dB   0.000000
  2340   C4   -0.981    0.084   -0.084   Cg   106      2dB   0.335000
  2341   H4   -1.447    0.663    0.715   H1   106      2dB   0.000000
  2342   C5   -0.893   -1.394    0.337   Cg   106      2dB   0.275000
  2343  H5A   -0.635   -2.021   -0.519   H1   106      2dB   0.000000
  2344  H5E   -1.853   -1.732    0.727   H1   106      2dB   0.000000
  2345   O5    0.143   -1.564    1.379   Os   106      2dB  -0.519000
  2346   O4   -1.809    0.141   -1.256   Oh   106      2dB  -0.709000
  2347  H4O   -1.899    1.053   -1.540   Ho   106      2dB   0.436000
  2348   O3    0.296    2.080   -0.673   Oh   106      2dB  -0.701000
  2349  H3O   -0.322    2.233   -1.392   Ho   106      2dB   0.432000
  2350   O2    1.037    1.130    1.883   Os   106      2dB  -0.424000
  2351   C1   -0.502   -1.744    1.041   Cg   107      2eA   0.480000
  2352   H1   -1.284   -2.309    1.551   H2   107      2eA   0.000000
  2353   O5   -1.096   -1.113   -0.162   Os   107      2eA  -0.587000
  2354   C5   -0.290   -0.114   -0.909   Cg   107      2eA   0.374000
  2355   H5    0.609   -0.602   -1.292   H1   107      2eA   0.000000
  2356   C6   -1.136    0.378   -2.092   Cg   107      2eA   0.259000
  2357  H61   -2.091    0.775   -1.744   H1   107      2eA   0.000000
  2358  H62   -0.612    1.165   -2.634   H1   107      2eA   0.000000
  2359   O6   -1.371   -0.719   -2.984   Oh   107      2eA  -0.663000
  2360  H6O   -0.531   -1.059   -3.301   Ho   107      2eA   0.406000
  2361   C4    0.117    0.997    0.077   Cg   107      2eA   0.261000
  2362   H4   -0.786    1.515    0.406   H1   107      2eA   0.000000
  2363   O4    0.955    1.959   -0.588   Oh   107      2eA  -0.721000
  2364  H4O    1.768    1.533   -0.870   Ho   107      2eA   0.415000
  2365   C3    0.848    0.461    1.327   Cg   107      2eA   0.328000
  2366   H3    1.016    1.275    2.035   H1   107      2eA   0.000000
  2367   O3    2.131   -0.081    0.954   Oh   107      2eA  -0.714000
  2368  H3O    2.580   -0.408    1.737   Ho   107      2eA   0.420000
  2369   C2    0.061   -0.677    2.006   Cg   107      2eA   0.179000
  2370   H2    0.680   -1.154    2.769   H1   107      2eA   0.000000
  2371   O2   -1.064   -0.081    2.673   Os   107      2eA  -0.437000
  2372   C1   -1.636   -0.226    1.361   Cg   108      2eB   0.488000
  2373   H1   -1.081   -0.626    2.210   H2   108      2eB   0.000000
  2374   C2   -1.324    1.290    1.166   Cg   108      2eB   0.184000
  2375   H2   -1.511    1.823    2.100   H1   108      2eB   0.000000
  2376   C3    0.153    1.448    0.762   Cg   108      2eB   0.315000
  2377   H3    0.365    2.499    0.558   H1   108      2eB   0.000000
  2378   C4    0.484    0.606   -0.502   Cg   108      2eB   0.320000
  2379   H4   -0.098    0.990   -1.341   H1   108      2eB   0.000000
  2380   C5    0.124   -0.886   -0.291   Cg   108      2eB   0.257000
  2381   H5    0.766   -1.302    0.487   H1   108      2eB   0.000000
  2382   C6    0.315   -1.713   -1.577   Cg   108      2eB   0.278000
  2383  H61    1.352   -1.675   -1.908   H1   108      2eB   0.000000
  2384  H62   -0.315   -1.318   -2.376   H1   108      2eB   0.000000
  2385   O6   -0.045   -3.086   -1.336   Oh   108      2eB  -0.677000
  2386  H6O   -0.916   -3.098   -0.929   Ho   108      2eB   0.408000
  2387   O5   -1.303   -1.003    0.161   Os   108      2eB  -0.532000
  2388   O4    1.894    0.748   -0.843   Oh   108      2eB  -0.724000
  2389  H4O    2.041    1.585   -1.299   Ho   108      2eB   0.420000
  2390   O3    0.979    1.032    1.884   Oh   108      2eB  -0.681000
  2391  H3O    1.899    1.011    1.594   Ho   108      2eB   0.403000
  2392   O2   -2.143    1.902    0.119   Os   108      2eB  -0.459000
  2393   C1   -0.611   -1.115   -1.643   Cg   109      2fA   0.399000
  2394   H1   -0.287   -1.521   -2.601   H2   109      2fA   0.000000
  2395   O5    0.293   -1.614   -0.594   Os   109      2fA  -0.494000
  2396   C5    0.126   -1.036    0.774   Cg   109      2fA   0.187000
  2397   H5   -0.840   -1.366    1.157   H1   109      2fA   0.000000
  2398   C6    1.201   -1.647    1.678   Cg   109      2fA   0.065000
  2399  H61    2.208   -1.419    1.327   Hc   109      2fA   0.000000
  2400  H62    1.109   -2.733    1.718   Hc   109      2fA   0.000000
  2401  H63    1.115   -1.277    2.699   Hc   109      2fA   0.000000
  2402   C4    0.098    0.518    0.740   Cg   109      2fA   0.263000
  2403   H4   -0.199    0.884    1.724   H1   109      2fA   0.000000
  2404   O4    1.420    1.041    0.446   Oh   109      2fA  -0.739000
  2405  H4O    1.337    2.001    0.372   Ho   109      2fA   0.447000
  2406   C3   -0.905    1.043   -0.317   Cg   109      2fA   0.228000
  2407   H3   -1.909    0.731   -0.027   H1   109      2fA   0.000000
  2408   O3   -0.882    2.507   -0.318   Oh   109      2fA  -0.693000
  2409  H3O   -1.705    2.829   -0.706   Ho   109      2fA   0.426000
  2410   C2   -0.566    0.449   -1.708   Cg   109      2fA   0.456000
  2411   H2    0.450    0.740   -1.981   H1   109      2fA   0.000000
  2412   O2   -1.452    0.985   -2.741   Os   109      2fA  -0.545000
  2413   C1   -1.176   -1.479    0.879   Cg   110      2fB   0.418000
  2414   H1   -0.580   -2.389    0.799   H2   110      2fB   0.000000
  2415   C2   -0.494   -0.474    1.835   Cg   110      2fB   0.346000
  2416   H2   -1.195    0.317    2.109   H1   110      2fB   0.000000
  2417   C3    0.776    0.141    1.212   Cg   110      2fB   0.255000
  2418   H3    1.546   -0.630    1.140   H1   110      2fB   0.000000
  2419   C4    0.538    0.705   -0.203   Cg   110      2fB   0.229000
  2420   H4    1.481    1.051   -0.629   H1   110      2fB   0.000000
  2421   C5   -0.072   -0.391   -1.102   Cg   110      2fB   0.106000
  2422   H5    0.638   -1.219   -1.161   H1   110      2fB   0.000000
  2423   C6   -0.401    0.034   -2.535   Cg   110      2fB   0.092000
  2424  H61   -0.780   -0.807   -3.118   Hc   110      2fB   0.000000
  2425  H62   -1.158    0.819   -2.567   Hc   110      2fB   0.000000
  2426  H63    0.485    0.410   -3.048   Hc   110      2fB   0.000000
  2427   O5   -1.316   -0.889   -0.470   Os   110      2fB  -0.442000
  2428   O4   -0.383    1.816   -0.138   Oh   110      2fB  -0.659000
  2429  H4O   -0.537    2.156   -1.022   Ho   110      2fB   0.423000
  2430   O3    1.278    1.189    2.063   Oh   110      2fB  -0.676000
  2431  H3O    1.450    0.834    2.939   Ho   110      2fB   0.427000
  2432   O2   -0.101   -1.195    3.016   Os   110      2fB  -0.519000
  2433   C1   -0.767   -0.575    1.931   Cg   111      2gA   0.509000
  2434   H1   -1.643   -0.736    2.559   H2   111      2gA   0.000000
  2435   O5   -0.996   -1.198    0.629   Os   111      2gA  -0.574000
  2436   C5    0.024   -0.971   -0.448   Cg   111      2gA   0.283000
  2437   H5    0.966   -1.419   -0.127   H1   111      2gA   0.000000
  2438   C6   -0.431   -1.668   -1.750   Cg   111      2gA   0.276000
  2439  H61   -1.469   -1.410   -1.969   H1   111      2gA   0.000000
  2440  H62    0.180   -1.345   -2.593   H1   111      2gA   0.000000
  2441   O6   -0.311   -3.102   -1.634   Oh   111      2gA  -0.682000
  2442  H6O    0.606   -3.361   -1.750   Ho   111      2gA   0.418000
  2443   C4    0.247    0.544   -0.635   Cg   111      2gA   0.254000
  2444   H4   -0.651    0.992   -1.064   H1   111      2gA   0.000000
  2445   O4    1.354    0.749   -1.550   Oh   111      2gA  -0.710000
  2446  H4O    1.553    1.696   -1.553   Ho   111      2gA   0.436000
  2447   C3    0.574    1.233    0.711   Cg   111      2gA   0.286000
  2448   H3    1.545    0.888    1.073   H1   111      2gA   0.000000
  2449   O3    0.642    2.667    0.493   Oh   111      2gA  -0.699000
  2450  H3O    0.610    3.093    1.361   Ho   111      2gA   0.427000
  2451   C2   -0.498    0.951    1.784   Cg   111      2gA   0.246000
  2452   H2   -1.431    1.421    1.470   H1   111      2gA   0.000000
  2453   O2   -0.104    1.552    3.061   Os   111      2gA  -0.470000
  2454   C1   -1.504   -0.266    1.429   Cg   112      2gB   0.384000
  2455   H1   -0.930   -0.666    2.267   H2   112      2gB   0.000000
  2456   C2   -1.153    1.226    1.174   Cg   112      2gB   0.310000
  2457   H2   -1.851    1.640    0.444   H1   112      2gB   0.000000
  2458   C3    0.290    1.355    0.636   Cg   112      2gB   0.284000
  2459   H3    0.991    1.094    1.432   H1   112      2gB   0.000000
  2460   C4    0.541    0.436   -0.583   Cg   112      2gB   0.276000
  2461   H4   -0.053    0.786   -1.430   H1   112      2gB   0.000000
  2462   C5    0.169   -1.028   -0.267   Cg   112      2gB   0.225000
  2463   H5    0.826   -1.403    0.521   H1   112      2gB   0.000000
  2464   C6    0.301   -1.949   -1.496   Cg   112      2gB   0.282000
  2465  H61    1.331   -1.967   -1.852   H1   112      2gB   0.000000
  2466  H62   -0.336   -1.590   -2.306   H1   112      2gB   0.000000
  2467   O6   -0.095   -3.288   -1.147   Oh   112      2gB  -0.688000
  2468  H6O   -0.971   -3.250   -0.751   Ho   112      2gB   0.424000
  2469   O5   -1.239   -1.072    0.234   Os   112      2gB  -0.471000
  2470   O4    1.943    0.496   -0.941   Oh   112      2gB  -0.714000
  2471  H4O    2.184    1.430   -1.012   Ho   112      2gB   0.440000
  2472   O3    0.532    2.734    0.242   Oh   112      2gB  -0.709000
  2473  H3O    0.292    3.296    0.992   Ho   112      2gB   0.432000
  2474   O2   -1.267    1.986    2.414   Os   112      2gB  -0.475000
  2475   C1   -0.437   -1.092   -1.869   Cg   113      2hA   0.394000
  2476   H1   -0.002   -1.468   -2.795   H2   113      2hA   0.000000
  2477   O5    0.401   -1.538   -0.743   Os   113      2hA  -0.461000
  2478   C5    0.121   -0.970    0.601   Cg   113      2hA   0.279000
  2479   H5   -0.852   -1.340    0.930   H1   113      2hA   0.000000
  2480   C6    1.190   -1.524    1.545   Cg   113      2hA   0.023000
  2481  H61    2.190   -1.195    1.258   Hc   113      2hA   0.000000
  2482  H62    1.191   -2.615    1.546   Hc   113      2hA   0.000000
  2483  H63    1.021   -1.203    2.573   Hc   113      2hA   0.000000
  2484   C4    0.077    0.577    0.543   Cg   113      2hA   0.187000
  2485   H4    1.076    0.968    0.342   H1   113      2hA   0.000000
  2486   O4   -0.380    1.098    1.824   Oh   113      2hA  -0.644000
  2487  H4O    0.316    1.016    2.484   Ho   113      2hA   0.405000
  2488   C3   -0.897    1.045   -0.560   Cg   113      2hA   0.236000
  2489   H3   -1.908    0.726   -0.296   H1   113      2hA   0.000000
  2490   O3   -0.897    2.496   -0.630   Oh   113      2hA  -0.649000
  2491  H3O   -1.064    2.819    0.264   Ho   113      2hA   0.425000
  2492   C2   -0.546    0.456   -1.944   Cg   113      2hA   0.248000
  2493   H2   -1.319    0.734   -2.662   H1   113      2hA   0.000000
  2494   O2    0.718    1.011   -2.408   Os   113      2hA  -0.443000
  2495   C1   -2.200   -0.032   -0.204   Cg   114      2hB   0.381000
  2496   H1   -2.313    0.993   -0.563   H2   114      2hB   0.000000
  2497   C2   -1.445   -0.868   -1.257   Cg   114      2hB   0.243000
  2498   H2   -1.992   -0.871   -2.201   H1   114      2hB   0.000000
  2499   C3   -0.039   -0.267   -1.460   Cg   114      2hB   0.182000
  2500   H3   -0.157    0.724   -1.902   H1   114      2hB   0.000000
  2501   C4    0.749   -0.139   -0.139   Cg   114      2hB   0.388000
  2502   H4    1.045   -1.129    0.215   H1   114      2hB   0.000000
  2503   C5   -0.065    0.588    0.957   Cg   114      2hB   0.172000
  2504   H5   -0.178    1.639    0.684   H1   114      2hB   0.000000
  2505  C6M    0.557    0.513    2.353   Cg   114      2hB   0.039000
  2506  H3M    1.541    0.982    2.377   Hc   114      2hB   0.000000
  2507  H2M    0.676   -0.519    2.687   Hc   114      2hB   0.000000
  2508  H1M   -0.062    1.027    3.091   Hc   114      2hB   0.000000
  2509   O5   -1.420   -0.008    1.052   Os   114      2hB  -0.427000
  2510   O4    1.928    0.643   -0.398   Oh   114      2hB  -0.728000
  2511  H4O    2.436    0.731    0.412   Ho   114      2hB   0.432000
  2512   O3    0.696   -1.084   -2.390   Oh   114      2hB  -0.665000
  2513  H3O    1.562   -0.697   -2.539   Ho   114      2hB   0.418000
  2514   O2   -1.320   -2.226   -0.775   Os   114      2hB  -0.435000
  2515   O2    0.474   -1.595    1.603   Os   115      2jA  -0.388000
  2516   C2   -0.545   -0.961    0.815   Cg   115      2jA   0.114000
  2517   O6   -0.444   -1.554   -0.539   Os   115      2jA  -0.504000
  2518   C6    0.756   -1.245   -1.364   Cg   115      2jA   0.368000
  2519  H6A    1.616   -1.761   -0.935   H1   115      2jA   0.000000
  2520  H6E    0.603   -1.634   -2.371   H1   115      2jA   0.000000
  2521   C5    1.026    0.271   -1.419   Cg   115      2jA   0.273000
  2522   H5    0.245    0.756   -2.006   H1   115      2jA   0.000000
  2523   O5    2.304    0.492   -2.073   Oh   115      2jA  -0.699000
  2524  H5O    2.483    1.441   -2.069   Ho   115      2jA   0.419000
  2525   C4    1.061    0.868    0.008   Cg   115      2jA   0.281000
  2526   H4    1.898    0.428    0.553   H1   115      2jA   0.000000
  2527   O4    1.279    2.310   -0.048   Oh   115      2jA  -0.672000
  2528  H4O    1.671    2.607    0.781   Ho   115      2jA   0.413000
  2529   C3   -0.251    0.572    0.778   Cg   115      2jA   0.271000
  2530   H3   -0.159    0.950    1.797   H1   115      2jA   0.000000
  2531   O3   -1.349    1.281    0.132   Oh   115      2jA  -0.654000
  2532  H3O   -1.041    2.172   -0.075   Ho   115      2jA   0.425000
  2533   C1   -1.921   -1.314    1.465   Cg   115      2jA   0.410000
  2534  H11   -2.031   -2.396    1.561   H1   115      2jA   0.000000
  2535  H12   -1.980   -0.880    2.464   H1   115      2jA   0.000000
  2536   O1   -3.013   -0.810    0.678   Oh   115      2jA  -0.656000
  2537  H1O   -2.683    0.004    0.267   Ho   115      2jA   0.405000
  2538   O2   -2.503   -1.032    0.838   Os   116      2jB  -0.388000
  2539   C2   -1.133   -0.697    0.589   Cg   116      2jB   0.413000
  2540   C1   -0.306   -1.208    1.815   Cg   116      2jB   0.280000
  2541  H11    0.705   -0.805    1.787   H1   116      2jB   0.000000
  2542  H12   -0.767   -0.863    2.742   H1   116      2jB   0.000000
  2543   O1   -0.201   -2.648    1.858   Oh   116      2jB  -0.722000
  2544  H1O   -1.064   -3.012    1.626   Ho   116      2jB   0.432000
  2545   C3   -1.000    0.855    0.399   Cg   116      2jB   0.363000
  2546   H3   -1.187    1.361    1.348   H1   116      2jB   0.000000
  2547   C4    0.416    1.223   -0.115   Cg   116      2jB   0.155000
  2548   H4    1.140    0.970    0.660   H1   116      2jB   0.000000
  2549   C5    0.787    0.442   -1.402   Cg   116      2jB   0.374000
  2550   H5    0.170    0.792   -2.231   H1   116      2jB   0.000000
  2551   C6    0.583   -1.082   -1.231   Cg   116      2jB   0.292000
  2552  H6A    1.341   -1.488   -0.560   H1   116      2jB   0.000000
  2553  H6E    0.687   -1.581   -2.194   H1   116      2jB   0.000000
  2554   O6   -0.759   -1.381   -0.673   Os   116      2jB  -0.551000
  2555   O5    2.182    0.709   -1.714   Oh   116      2jB  -0.729000
  2556  H5O    2.766    0.296   -1.070   Ho   116      2jB   0.426000
  2557   O4    0.509    2.662   -0.333   Oh   116      2jB  -0.684000
  2558  H4O    1.331    2.860   -0.805   Ho   116      2jB   0.438000
  2559   O3   -1.962    1.350   -0.583   Oh   116      2jB  -0.725000
  2560  H3O   -1.733    2.274   -0.751   Ho   116      2jB   0.432000
  2561   C1   -0.471   -1.739    1.003   Cg   117      2kA   0.473000
  2562   H1   -1.261   -2.273    1.532   H2   117      2kA   0.000000
  2563   O5   -1.072   -1.039   -0.155   Os   117      2kA  -0.540000
  2564   C5   -0.195   -0.116   -0.928   Cg   117      2kA   0.301000
  2565   H5    0.636   -0.698   -1.332   H1   117      2kA   0.000000
  2566   C6   -0.991    0.444   -2.115   Cg   117      2kA   0.287000
  2567  H61   -1.905    0.933   -1.775   H1   117      2kA   0.000000
  2568  H62   -0.391    1.173   -2.660   H1   117      2kA   0.000000
  2569   O6   -1.329   -0.633   -2.998   Oh   117      2kA  -0.691000
  2570  H6O   -0.526   -1.057   -3.309   Ho   117      2kA   0.422000
  2571   C4    0.406    0.954    0.017   Cg   117      2kA   0.196000
  2572   H4    1.135    1.552   -0.532   H1   117      2kA   0.000000
  2573   O4   -0.640    1.834    0.468   Oh   117      2kA  -0.712000
  2574  H4O   -1.060    2.247   -0.291   Ho   117      2kA   0.420000
  2575   C3    1.068    0.348    1.270   Cg   117      2kA   0.354000
  2576   H3    1.324    1.138    1.979   H1   117      2kA   0.000000
  2577   O3    2.289   -0.285    0.844   Oh   117      2kA  -0.744000
  2578  H3O    2.736   -0.662    1.605   Ho   117      2kA   0.436000
  2579   C2    0.141   -0.683    1.949   Cg   117      2kA   0.281000
  2580   H2   -0.697   -0.124    2.367   H1   117      2kA   0.000000
  2581   O2    0.803   -1.314    3.060   Os   117      2kA  -0.483000
  2582   C1   -1.423   -0.319    1.400   Cg   118      2kB   0.449000
  2583   H1   -0.841   -0.750    2.216   H2   118      2kB   0.000000
  2584   C2   -1.118    1.198    1.231   Cg   118      2kB   0.308000
  2585   H2   -1.809    1.617    0.497   H1   118      2kB   0.000000
  2586   C3    0.327    1.405    0.717   Cg   118      2kB   0.253000
  2587   H3    0.488    2.465    0.516   H1   118      2kB   0.000000
  2588   C4    0.606    0.591   -0.566   Cg   118      2kB   0.217000
  2589   H4    1.665    0.667   -0.820   H1   118      2kB   0.000000
  2590   C5    0.244   -0.906   -0.369   Cg   118      2kB   0.303000
  2591   H5    0.930   -1.321    0.372   H1   118      2kB   0.000000
  2592   C6    0.392   -1.738   -1.659   Cg   118      2kB   0.259000
  2593  H61    1.391   -1.609   -2.075   H1   118      2kB   0.000000
  2594  H62   -0.334   -1.416   -2.406   H1   118      2kB   0.000000
  2595   O6    0.185   -3.135   -1.376   Oh   118      2kB  -0.670000
  2596  H6O   -0.689   -3.238   -0.987   Ho   118      2kB   0.416000
  2597   O5   -1.150   -1.053    0.162   Os   118      2kB  -0.514000
  2598   O4   -0.153    1.170   -1.663   Oh   118      2kB  -0.700000
  2599  H4O    0.250    1.997   -1.951   Ho   118      2kB   0.425000
  2600   O3    1.283    0.992    1.728   Oh   118      2kB  -0.710000
  2601  H3O    1.053    1.453    2.548   Ho   118      2kB   0.442000
  2602   O2   -1.296    1.931    2.483   Os   118      2kB  -0.478000
  2603   C1   -0.505   -1.790    0.933   Cg   119      2lA   0.465000
  2604   H1   -1.319   -2.305    1.441   H2   119      2lA   0.000000
  2605   O5   -1.058   -1.082   -0.246   Os   119      2lA  -0.527000
  2606   C5   -0.129   -0.192   -0.998   Cg   119      2lA   0.216000
  2607   H5    0.707   -0.794   -1.359   H1   119      2lA   0.000000
  2608   C6   -0.864    0.369   -2.224   Cg   119      2lA   0.308000
  2609  H61   -1.781    0.881   -1.928   H1   119      2lA   0.000000
  2610  H62   -0.227    1.078   -2.753   H1   119      2lA   0.000000
  2611   O6   -1.188   -0.714   -3.106   Oh   119      2lA  -0.684000
  2612  H6O   -0.381   -1.158   -3.377   Ho   119      2lA   0.418000
  2613   C4    0.445    0.874   -0.040   Cg   119      2lA   0.204000
  2614   H4    1.185    1.479   -0.565   H1   119      2lA   0.000000
  2615   O4   -0.637    1.730    0.390   Oh   119      2lA  -0.673000
  2616  H4O   -1.041    2.144   -0.376   Ho   119      2lA   0.436000
  2617   C3    1.097    0.200    1.187   Cg   119      2lA   0.253000
  2618   H3    1.968   -0.364    0.851   H1   119      2lA   0.000000
  2619   O3    1.546    1.217    2.102   Oh   119      2lA  -0.701000
  2620  H3O    1.961    0.803    2.862   Ho   119      2lA   0.433000
  2621   C2    0.119   -0.756    1.899   Cg   119      2lA   0.339000
  2622   H2   -0.692   -0.172    2.338   H1   119      2lA   0.000000
  2623   O2    0.794   -1.446    2.968   Os   119      2lA  -0.487000
  2624   C1   -1.392   -0.312    1.469   Cg   120      2lB   0.374000
  2625   H1   -0.821   -0.710    2.309   H2   120      2lB   0.000000
  2626   C2   -1.041    1.188    1.234   Cg   120      2lB   0.357000
  2627   H2   -1.743    1.621    0.518   H1   120      2lB   0.000000
  2628   C3    0.403    1.318    0.694   Cg   120      2lB   0.259000
  2629   H3    1.097    0.996    1.473   H1   120      2lB   0.000000
  2630   C4    0.642    0.442   -0.556   Cg   120      2lB   0.203000
  2631   H4    1.692    0.506   -0.846   H1   120      2lB   0.000000
  2632   C5    0.283   -1.032   -0.262   Cg   120      2lB   0.140000
  2633   H5    0.968   -1.392    0.508   H1   120      2lB   0.000000
  2634   C6    0.426   -1.947   -1.491   Cg   120      2lB   0.319000
  2635  H61    1.423   -1.851   -1.920   H1   120      2lB   0.000000
  2636  H62   -0.308   -1.688   -2.256   H1   120      2lB   0.000000
  2637   O6    0.222   -3.311   -1.086   Oh   120      2lB  -0.693000
  2638  H6O   -0.653   -3.373   -0.692   Ho   120      2lB   0.419000
  2639   O5   -1.109   -1.124    0.278   Os   120      2lB  -0.402000
  2640   O4   -0.168    0.929   -1.655   Oh   120      2lB  -0.664000
  2641  H4O    0.002    1.878   -1.735   Ho   120      2lB   0.437000
  2642   O3    0.711    2.703    0.372   Oh   120      2lB  -0.694000
  2643  H3O    0.507    3.235    1.153   Ho   120      2lB   0.433000
  2644   O2   -1.139    1.923    2.491   Os   120      2lB  -0.488000
  2645   C1   -0.932   -0.617    1.869   Cg   121      2mA   0.433000
  2646   H1   -1.865   -0.797    2.403   H2   121      2mA   0.000000
  2647   O5   -1.014   -1.253    0.546   Os   121      2mA  -0.507000
  2648   C5    0.060   -0.958   -0.454   Cg   121      2mA   0.276000
  2649   H5    0.989   -1.404   -0.093   H1   121      2mA   0.000000
  2650   C6   -0.304   -1.610   -1.806   Cg   121      2mA   0.266000
  2651  H61   -1.323   -1.342   -2.088   H1   121      2mA   0.000000
  2652  H62    0.365   -1.261   -2.592   H1   121      2mA   0.000000
  2653   O6   -0.193   -3.048   -1.732   Oh   121      2mA  -0.688000
  2654  H6O    0.731   -3.304   -1.705   Ho   121      2mA   0.422000
  2655   C4    0.273    0.568   -0.582   Cg   121      2mA   0.326000
  2656   H4   -0.593    1.026   -1.061   H1   121      2mA   0.000000
  2657   O4    1.446    0.810   -1.403   Oh   121      2mA  -0.733000
  2658  H4O    1.619    1.760   -1.383   Ho   121      2mA   0.438000
  2659   C3    0.502    1.204    0.812   Cg   121      2mA   0.252000
  2660   H3    1.414    0.785    1.242   H1   121      2mA   0.000000
  2661   O3    0.695    2.648    0.697   Oh   121      2mA  -0.696000
  2662  H3O    1.113    2.985    1.498   Ho   121      2mA   0.431000
  2663   C2   -0.674    0.913    1.771   Cg   121      2mA   0.245000
  2664   H2   -0.434    1.303    2.761   H1   121      2mA   0.000000
  2665   O2   -1.875    1.593    1.298   Os   121      2mA  -0.465000
  2666   C1   -1.537   -0.309    1.502   Cg   122      2mB   0.314000
  2667   H1   -0.903   -0.610    2.338   H2   122      2mB   0.000000
  2668   C2   -1.312    1.194    1.174   Cg   122      2mB   0.241000
  2669   H2   -1.531    1.801    2.053   H1   122      2mB   0.000000
  2670   C3    0.172    1.359    0.771   Cg   122      2mB   0.263000
  2671   H3    0.787    1.010    1.603   H1   122      2mB   0.000000
  2672   C4    0.498    0.499   -0.481   Cg   122      2mB   0.349000
  2673   H4   -0.077    0.854   -1.337   H1   122      2mB   0.000000
  2674   C5    0.174   -0.992   -0.211   Cg   122      2mB   0.206000
  2675   H5    0.873   -1.373    0.536   H1   122      2mB   0.000000
  2676   C6    0.303   -1.846   -1.485   Cg   122      2mB   0.273000
  2677  H61    1.316   -1.789   -1.883   H1   122      2mB   0.000000
  2678  H62   -0.387   -1.490   -2.251   H1   122      2mB   0.000000
  2679   O6    0.001   -3.221   -1.185   Oh   122      2mB  -0.680000
  2680  H6O   -0.876   -3.260   -0.790   Ho   122      2mB   0.419000
  2681   O5   -1.211   -1.146    0.338   Os   122      2mB  -0.393000
  2682   O4    1.912    0.611   -0.794   Oh   122      2mB  -0.746000
  2683  H4O    2.055    1.440   -1.262   Ho   122      2mB   0.443000
  2684   O3    0.498    2.765    0.567   Oh   122      2mB  -0.692000
  2685  H3O    1.438    2.903    0.714   Ho   122      2mB   0.430000
  2686   O2   -2.193    1.598    0.084   Os   122      2mB  -0.427000
  2687   C1   -0.553   -1.811    1.034   Cg   123      2nA   0.478000
  2688   H1   -1.343   -2.394    1.506   H2   123      2nA   0.000000
  2689   O5   -1.114   -1.149   -0.166   Os   123      2nA  -0.611000
  2690   C5   -0.287   -0.129   -0.867   Cg   123      2nA   0.404000
  2691   H5    0.602   -0.618   -1.272   H1   123      2nA   0.000000
  2692   C6   -1.122    0.431   -2.027   Cg   123      2nA   0.280000
  2693  H61   -2.066    0.838   -1.660   H1   123      2nA   0.000000
  2694  H62   -0.580    1.226   -2.539   H1   123      2nA   0.000000
  2695   O6   -1.389   -0.622   -2.962   Oh   123      2nA  -0.663000
  2696  H6O   -0.559   -0.971   -3.297   Ho   123      2nA   0.396000
  2697   C4    0.150    0.941    0.159   Cg   123      2nA   0.167000
  2698   H4   -0.736    1.486    0.487   H1   123      2nA   0.000000
  2699   O4    1.035    1.884   -0.473   Oh   123      2nA  -0.733000
  2700  H4O    1.823    1.428   -0.778   Ho   123      2nA   0.444000
  2701   C3    0.840    0.355    1.408   Cg   123      2nA   0.330000
  2702   H3    1.026    1.145    2.137   H1   123      2nA   0.000000
  2703   O3    2.102   -0.242    1.036   Oh   123      2nA  -0.714000
  2704  H3O    2.693    0.439    0.705   Ho   123      2nA   0.441000
  2705   C2   -0.080   -0.719    2.020   Cg   123      2nA   0.228000
  2706   H2   -0.976   -0.205    2.370   H1   123      2nA   0.000000
  2707   O2    0.532   -1.312    3.179   Os   123      2nA  -0.447000
  2708   C1   -1.527   -0.235    1.338   Cg   124      2nB   0.422000
  2709   H1   -0.946   -0.641    2.168   H2   124      2nB   0.000000
  2710   C2   -1.224    1.278    1.123   Cg   124      2nB   0.301000
  2711   H2   -1.925    1.678    0.386   H1   124      2nB   0.000000
  2712   C3    0.210    1.479    0.585   Cg   124      2nB   0.234000
  2713   H3    0.368    2.537    0.363   H1   124      2nB   0.000000
  2714   C4    0.414    0.641   -0.697   Cg   124      2nB   0.286000
  2715   H4   -0.283    0.992   -1.460   H1   124      2nB   0.000000
  2716   C5    0.145   -0.860   -0.436   Cg   124      2nB   0.198000
  2717   H5    0.855   -1.229    0.306   H1   124      2nB   0.000000
  2718   C6    0.285   -1.720   -1.707   Cg   124      2nB   0.313000
  2719  H61    1.298   -1.659   -2.104   H1   124      2nB   0.000000
  2720  H62   -0.410   -1.378   -2.474   H1   124      2nB   0.000000
  2721   O6   -0.009   -3.091   -1.384   Oh   124      2nB  -0.689000
  2722  H6O   -0.824   -3.103   -0.874   Ho   124      2nB   0.418000
  2723   O5   -1.240   -1.007    0.120   Os   124      2nB  -0.507000
  2724   O4    1.757    0.839   -1.198   Oh   124      2nB  -0.707000
  2725  H4O    2.355    0.884   -0.441   Ho   124      2nB   0.430000
  2726   O3    1.174    1.071    1.599   Oh   124      2nB  -0.615000
  2727  H3O    0.911    1.483    2.434   Ho   124      2nB   0.389000
  2728   O2   -1.385    2.040    2.355   Os   124      2nB  -0.473000
  2729   C1   -0.544   -0.817    1.796   Cg   125      2oA   0.305000
  2730   H1   -1.428   -0.996    2.408   H2   125      2oA   0.000000
  2731   O5   -0.718   -1.507    0.508   Os   125      2oA  -0.424000
  2732   C5    0.257   -1.193   -0.608   Cg   125      2oA   0.054000
  2733   H5    1.243   -1.547   -0.300   H1   125      2oA   0.000000
  2734   C6   -0.055   -1.815   -2.011    C   125      2oA   0.896000
  2735  O6B   -1.215   -1.661   -2.464   O2   125      2oA  -0.822000
  2736  O6A    0.909   -2.335   -2.619   O2   125      2oA  -0.822000
  2737   C4    0.318    0.333   -0.809   Cg   125      2oA   0.267000
  2738   H4    1.058    0.571   -1.573   H1   125      2oA   0.000000
  2739   O4   -0.992    0.768   -1.270   Oh   125      2oA  -0.704000
  2740  H4O   -1.344    0.047   -1.836   Ho   125      2oA   0.429000
  2741   C3    0.711    1.021    0.524   Cg   125      2oA   0.251000
  2742   H3    1.665    0.603    0.852   H1   125      2oA   0.000000
  2743   O3    0.919    2.456    0.354   Oh   125      2oA  -0.725000
  2744  H3O    0.800    2.867    1.217   Ho   125      2oA   0.416000
  2745   C2   -0.347    0.723    1.615   Cg   125      2oA   0.413000
  2746   H2   -1.300    1.170    1.326   H1   125      2oA   0.000000
  2747   O2    0.062    1.311    2.891   Os   125      2oA  -0.534000
  2748   C1   -1.465   -0.631    1.434   Cg   126      2oB   0.301000
  2749   H1   -0.881   -1.012    2.274   H2   126      2oB   0.000000
  2750   C2   -1.156    0.879    1.200   Cg   126      2oB   0.383000
  2751   H2   -1.900    1.305    0.526   H1   126      2oB   0.000000
  2752   C3    0.261    1.069    0.593   Cg   126      2oB   0.259000
  2753   H3    0.997    0.775    1.344   H1   126      2oB   0.000000
  2754   C4    0.472    0.181   -0.658   Cg   126      2oB   0.260000
  2755   H4    1.500    0.309   -1.002   H1   126      2oB   0.000000
  2756   C5    0.211   -1.299   -0.329   Cg   126      2oB   0.049000
  2757   H5    0.910   -1.582    0.460   H1   126      2oB   0.000000
  2758   C6    0.606   -2.207   -1.552    C   126      2oB   0.838000
  2759  O6A   -0.165   -3.138   -1.886   O2   126      2oB  -0.794000
  2760  O6B    1.739   -2.000   -2.055   O2   126      2oB  -0.794000
  2761   O5   -1.171   -1.441    0.253   Os   126      2oB  -0.414000
  2762   O4   -0.424    0.613   -1.713   Oh   126      2oB  -0.661000
  2763  H4O   -0.305    1.559   -1.825   Ho   126      2oB   0.402000
  2764   O3    0.534    2.463    0.230   Oh   126      2oB  -0.708000
  2765  H3O    1.484    2.603    0.215   Ho   126      2oB   0.404000
  2766   O2   -1.248    1.554    2.491   Os   126      2oB  -0.525000
  2767   O2    0.264   -2.137   -0.133   Os   127      2pA  -0.388000
  2768   C2   -0.655   -1.040    0.033   Cg   127      2pA   0.417000
  2769   O6   -0.953   -0.411   -1.282   Os   127      2pA  -0.598000
  2770   C6    0.124    0.349   -1.959   Cg   127      2pA   0.393000
  2771  H6A    0.920   -0.338   -2.251   H1   127      2pA   0.000000
  2772  H6E   -0.277    0.810   -2.861   H1   127      2pA   0.000000
  2773   C5    0.658    1.424   -1.000   Cg   127      2pA   0.153000
  2774   H5   -0.140    2.143   -0.813   H1   127      2pA   0.000000
  2775   O5    1.738    2.124   -1.641   Oh   127      2pA  -0.693000
  2776  H5O    2.063    2.814   -1.058   Ho   127      2pA   0.428000
  2777   C4    1.127    0.852    0.352   Cg   127      2pA   0.394000
  2778   H4    1.411    1.665    1.022   H1   127      2pA   0.000000
  2779   O4    2.271   -0.006    0.148   Oh   127      2pA  -0.702000
  2780  H4O    2.552   -0.370    0.991   Ho   127      2pA   0.432000
  2781   C3   -0.031    0.039    0.967   Cg   127      2pA   0.150000
  2782   H3   -0.817    0.759    1.198   H1   127      2pA   0.000000
  2783   O3    0.379   -0.534    2.225   Oh   127      2pA  -0.665000
  2784  H3O    1.069   -1.183    2.070   Ho   127      2pA   0.409000
  2785   C1   -1.958   -1.677    0.555   Cg   127      2pA   0.327000
  2786  H11   -2.322   -2.428   -0.148   H1   127      2pA   0.000000
  2787  H12   -1.787   -2.166    1.515   H1   127      2pA   0.000000
  2788   O1   -2.969   -0.672    0.719   Oh   127      2pA  -0.644000
  2789  H1O   -2.667   -0.015    1.351   Ho   127      2pA   0.393000
  2790   O2   -2.591   -0.650    0.432   Os   128      2pB  -0.388000
  2791   C2   -1.176   -0.510    0.305   Cg   128      2pB   0.407000
  2792   C1   -0.500   -1.175    1.559   Cg   128      2pB   0.379000
  2793  H11    0.580   -1.052    1.517   H1   128      2pB   0.000000
  2794  H12   -0.851   -0.692    2.472   H1   128      2pB   0.000000
  2795   O1   -0.776   -2.597    1.657   Oh   128      2pB  -0.720000
  2796  H1O   -0.328   -2.957    2.427   Ho   128      2pB   0.410000
  2797   C3   -0.889    1.015    0.127   Cg   128      2pB   0.180000
  2798   H3   -1.612    1.411   -0.590   H1   128      2pB   0.000000
  2799   C4    0.510    1.308   -0.468   Cg   128      2pB   0.328000
  2800   H4    0.575    2.368   -0.718   H1   128      2pB   0.000000
  2801   C5    0.775    0.471   -1.740   Cg   128      2pB   0.188000
  2802   H5    0.080    0.790   -2.517   H1   128      2pB   0.000000
  2803   C6    0.541   -1.029   -1.476   Cg   128      2pB   0.364000
  2804  H6A    1.267   -1.417   -0.760   H1   128      2pB   0.000000
  2805  H6E    0.645   -1.592   -2.403   H1   128      2pB   0.000000
  2806   O6   -0.831   -1.217   -0.947   Os   128      2pB  -0.540000
  2807   O5    2.125    0.701   -2.230   Oh   128      2pB  -0.705000
  2808  H5O    2.715    0.786   -1.469   Ho   128      2pB   0.433000
  2809   O4    1.526    1.016    0.529   Oh   128      2pB  -0.698000
  2810  H4O    1.299    1.544    1.306   Ho   128      2pB   0.427000
  2811   O3   -1.073    1.760    1.372   Oh   128      2pB  -0.681000
  2812  H3O   -2.009    1.719    1.615   Ho   128      2pB   0.422000
  2813   C1   -0.569   -1.058   -1.833   Cg   129      2qA   0.465000
  2814   H1   -0.241   -1.446   -2.798   H1   129      2qA   0.000000
  2815   O5    0.378   -1.504   -0.804   Os   129      2qA  -0.559000
  2816   C5    0.177   -0.987    0.576   Cg   129      2qA   0.234000
  2817   H5   -0.771   -1.376    0.952   H1   129      2qA   0.000000
  2818   C6    1.306   -1.561    1.436   Cg   129      2qA   0.060000
  2819  H61    1.316   -2.651    1.401   Hc   129      2qA   0.000000
  2820  H62    1.196   -1.275    2.483   Hc   129      2qA   0.000000
  2821  H63    2.285   -1.212    1.102   Hc   129      2qA   0.000000
  2822   C4    0.116    0.557    0.562   Cg   129      2qA   0.208000
  2823   H4    1.107    0.951    0.326   H1   129      2qA   0.000000
  2824   O4   -0.269    1.026    1.885   Oh   129      2qA  -0.664000
  2825  H4O    0.477    0.968    2.491   Ho   129      2qA   0.403000
  2826   C3   -0.901    1.085   -0.481   Cg   129      2qA   0.312000
  2827   H3   -1.914    0.835   -0.161   H1   129      2qA   0.000000
  2828   O3   -0.769    2.530   -0.516   Oh   129      2qA  -0.697000
  2829  H3O   -0.912    2.856    0.378   Ho   129      2qA   0.424000
  2830   C2   -0.650    0.494   -1.892   Cg   129      2qA   0.281000
  2831   H2    0.311    0.863   -2.253   H1   129      2qA   0.000000
  2832   O2   -1.673    0.905   -2.855   Os   129      2qA  -0.467000
  2833   C1   -1.417   -0.572    1.469   Cg   130      2qB   0.391000
  2834   H1   -0.764   -0.988    2.238   H1   130      2qB   0.000000
  2835   C2   -1.156    0.947    1.270   Cg   130      2qB   0.323000
  2836   H2   -1.917    1.359    0.604   H1   130      2qB   0.000000
  2837   C3    0.244    1.163    0.650   Cg   130      2qB   0.300000
  2838   H3    1.002    0.897    1.390   H1   130      2qB   0.000000
  2839   C4    0.466    0.315   -0.627   Cg   130      2qB   0.250000
  2840   H4   -0.174    0.693   -1.427   H1   130      2qB   0.000000
  2841   C5    0.141   -1.178   -0.377   Cg   130      2qB   0.271000
  2842   H5    0.862   -1.589    0.333   H1   130      2qB   0.000000
  2843   C6    0.159   -2.041   -1.641   Cg   130      2qB   0.048000
  2844  H61   -0.100   -3.076   -1.417   Hc   130      2qB   0.000000
  2845  H62    1.147   -2.051   -2.104   Hc   130      2qB   0.000000
  2846  H63   -0.550   -1.678   -2.387   Hc   130      2qB   0.000000
  2847   O5   -1.217   -1.295    0.215   Os   130      2qB  -0.535000
  2848   O4    1.851    0.432   -1.041   Oh   130      2qB  -0.713000
  2849  H4O    2.058    1.372   -1.116   Ho   130      2qB   0.421000
  2850   O3    0.403    2.568    0.313   Oh   130      2qB  -0.689000
  2851  H3O    0.187    3.081    1.102   Ho   130      2qB   0.420000
  2852   O2   -1.225    1.645    2.551   Os   130      2qB  -0.487000
  2853   C1   -1.182   -1.581    0.346   Cg   131      2rA   0.488000
  2854   H1   -2.124   -1.988    0.713   H2   131      2rA   0.000000
  2855   O5   -1.432   -0.930   -0.963   Os   131      2rA  -0.561000
  2856   C5   -0.339   -0.118   -1.550   Cg   131      2rA   0.377000
  2857  H5A    0.494   -0.772   -1.813   H1   131      2rA   0.000000
  2858  H5E   -0.699    0.358   -2.463   H1   131      2rA   0.000000
  2859   C4    0.105    0.945   -0.533   Cg   131      2rA   0.122000
  2860   H4   -0.721    1.642   -0.384   H1   131      2rA   0.000000
  2861   O4    1.207    1.684   -1.084   Oh   131      2rA  -0.663000
  2862  H4O    1.943    1.088   -1.243   Ho   131      2rA   0.419000
  2863   C3    0.495    0.354    0.837   Cg   131      2rA   0.345000
  2864   H3    0.703    1.157    1.547   H1   131      2rA   0.000000
  2865   O3    1.679   -0.463    0.697   Oh   131      2rA  -0.737000
  2866  H3O    2.414    0.085    0.412   Ho   131      2rA   0.443000
  2867   C2   -0.676   -0.512    1.343   Cg   131      2rA   0.253000
  2868   H2   -1.512    0.165    1.525   H1   131      2rA   0.000000
  2869   O2   -0.353   -1.111    2.611   Os   131      2rA  -0.486000
  2870   C1   -1.659   -0.713    0.957   Cg   132      2rB   0.481000
  2871   H1   -1.153   -1.112    1.836   H2   132      2rB   0.000000
  2872   C2   -1.289    0.784    0.706   Cg   132      2rB   0.385000
  2873   H2   -1.873    1.141   -0.145   H1   132      2rB   0.000000
  2874   C3    0.212    0.884    0.332   Cg   132      2rB   0.203000
  2875   H3    0.473    1.923    0.129   H1   132      2rB   0.000000
  2876   C4    0.465    0.027   -0.933   Cg   132      2rB   0.236000
  2877   H4   -0.147    0.414   -1.749   H1   132      2rB   0.000000
  2878   C5    0.075   -1.451   -0.685   Cg   132      2rB   0.335000
  2879  H5A    0.727   -1.903    0.064   H1   132      2rB   0.000000
  2880  H5E    0.177   -2.023   -1.607   H1   132      2rB   0.000000
  2881   O5   -1.336   -1.533   -0.220   Os   132      2rB  -0.576000
  2882   O4    1.857    0.126   -1.338   Oh   132      2rB  -0.695000
  2883  H4O    2.036    0.995   -1.713   Ho   132      2rB   0.411000
  2884   O3    1.060    0.385    1.411   Oh   132      2rB  -0.696000
  2885  H3O    1.981    0.403    1.121   Ho   132      2rB   0.428000
  2886   O2   -1.607    1.654    1.833   Os   132      2rB  -0.512000
  2887   C1   -0.495   -1.797    0.952   Cg   133      2tA   0.456000
  2888   H1   -1.324   -2.307    1.444   H2   133      2tA   0.000000
  2889   O5   -1.021   -1.106   -0.252   Os   133      2tA  -0.480000
  2890   C5   -0.098   -0.203   -0.992   Cg   133      2tA   0.157000
  2891   H5    0.758   -0.793   -1.328   H1   133      2tA   0.000000
  2892   C6   -0.818    0.328   -2.239   Cg   133      2tA   0.304000
  2893  H61   -1.753    0.821   -1.968   H1   133      2tA   0.000000
  2894  H62   -0.187    1.046   -2.762   H1   133      2tA   0.000000
  2895   O6   -1.098   -0.771   -3.117   Oh   133      2tA  -0.669000
  2896  H6O   -0.275   -1.198   -3.367   Ho   133      2tA   0.401000
  2897   C4    0.436    0.886   -0.036   Cg   133      2tA   0.434000
  2898   H4    1.194    1.481   -0.548   H1   133      2tA   0.000000
  2899   O4   -0.652    1.754    0.343   Oh   133      2tA  -0.731000
  2900  H4O   -1.026    2.160   -0.442   Ho   133      2tA   0.417000
  2901   C3    1.054    0.225    1.214   Cg   133      2tA   0.124000
  2902   H3    1.930   -0.331    0.875   H1   133      2tA   0.000000
  2903   O3    1.532    1.223    2.133   Oh   133      2tA  -0.687000
  2904  H3O    1.959    0.793    2.878   Ho   133      2tA   0.442000
  2905   C2    0.136   -0.789    1.934   Cg   133      2tA   0.245000
  2906   H2    0.703   -1.317    2.702   H1   133      2tA   0.000000
  2907   O2   -0.957   -0.106    2.576   Os   133      2tA  -0.413000
  2908   C1   -1.284   -1.209    1.132   Cg   134      2tB   0.306000
  2909   H1   -0.733   -2.151    1.125   H2   134      2tB   0.000000
  2910   C2   -0.558   -0.204    2.052   Cg   134      2tB   0.340000
  2911   H2   -0.441   -0.628    3.051   H1   134      2tB   0.000000
  2912   C3    0.829    0.118    1.451   Cg   134      2tB   0.174000
  2913   H3    1.415   -0.801    1.503   H1   134      2tB   0.000000
  2914   C4    0.810    0.551   -0.034   Cg   134      2tB   0.314000
  2915   H4    1.832    0.610   -0.411   H1   134      2tB   0.000000
  2916   C5    0.006   -0.466   -0.878   Cg   134      2tB   0.031000
  2917   H5    0.552   -1.412   -0.855   H1   134      2tB   0.000000
  2918   C6   -0.195   -0.079   -2.349   Cg   134      2tB   0.349000
  2919  H61    0.765    0.148   -2.815   H1   134      2tB   0.000000
  2920  H62   -0.838    0.798   -2.436   H1   134      2tB   0.000000
  2921   O6   -0.799   -1.180   -3.040   Oh   134      2tB  -0.666000
  2922  H6O   -1.643   -1.389   -2.632   Ho   134      2tB   0.406000
  2923   O5   -1.325   -0.686   -0.252   Os   134      2tB  -0.354000
  2924   O4    0.200    1.853   -0.164   Oh   134      2tB  -0.626000
  2925  H4O    0.197    2.113   -1.088   Ho   134      2tB   0.413000
  2926   O3    1.519    1.090    2.256   Oh   134      2tB  -0.678000
  2927  H3O    1.034    1.919    2.239   Ho   134      2tB   0.425000
  2928   O2   -1.341    1.005    2.146   Os   134      2tB  -0.434000
  2929   C1   -1.848   -1.034    0.112   Cg   135      2uA   0.363000
  2930   H1   -1.707   -1.529   -0.849   H2   135      2uA   0.000000
  2931   O5   -0.810   -1.477    1.044   Os   135      2uA  -0.515000
  2932   C5    0.596   -1.075    0.696   Cg   135      2uA   0.232000
  2933   H5    1.232   -1.426    1.510   H1   135      2uA   0.000000
  2934   C6    1.246   -1.659   -0.634    C   135      2uA   0.697000
  2935  O6B    2.401   -1.265   -0.926   O2   135      2uA  -0.757000
  2936  O6A    0.559   -2.429   -1.342   O2   135      2uA  -0.757000
  2937   C4    0.635    0.465    0.708   Cg   135      2uA   0.223000
  2938   H4    0.371    0.807    1.711   H1   135      2uA   0.000000
  2939   O4    1.979    0.954    0.409   Oh   135      2uA  -0.711000
  2940  H4O    2.416    0.285   -0.165   Ho   135      2uA   0.397000
  2941   C3   -0.400    1.038   -0.295   Cg   135      2uA   0.417000
  2942   H3   -0.089    0.770   -1.307   H1   135      2uA   0.000000
  2943   O3   -0.359    2.487   -0.175   Oh   135      2uA  -0.771000
  2944  H3O    0.579    2.710   -0.111   Ho   135      2uA   0.417000
  2945   C2   -1.846    0.516   -0.060   Cg   135      2uA   0.259000
  2946   H2   -2.239    0.970    0.853   H1   135      2uA   0.000000
  2947   O2   -2.715    0.894   -1.182   Os   135      2uA  -0.494000
  2948   C1    0.656   -1.185    1.606   Cg   136      2uB   0.278000
  2949   H1    1.397   -1.653    2.254   H2   136      2uB   0.000000
  2950   C2    0.918    0.349    1.563   Cg   136      2uB   0.289000
  2951   H2    1.956    0.489    1.259   H1   136      2uB   0.000000
  2952   C3    0.022    1.054    0.519   Cg   136      2uB   0.286000
  2953   H3   -1.027    0.968    0.804   H1   136      2uB   0.000000
  2954   C4    0.246    0.414   -0.877   Cg   136      2uB   0.308000
  2955   H4    1.292    0.568   -1.153   H1   136      2uB   0.000000
  2956   C5   -0.013   -1.110   -0.864   Cg   136      2uB   0.194000
  2957   H5    0.373   -1.512   -1.802   H1   136      2uB   0.000000
  2958   C6   -1.560   -1.438   -0.881    C   136      2uB   0.750000
  2959  O6A   -1.989   -2.243   -0.024   O2   136      2uB  -0.783000
  2960  O6B   -2.271   -0.849   -1.730   O2   136      2uB  -0.783000
  2961   O5    0.809   -1.732    0.242   Os   136      2uB  -0.430000
  2962   O4   -0.567    1.090   -1.877   Oh   136      2uB  -0.745000
  2963  H4O   -1.382    0.547   -1.998   Ho   136      2uB   0.422000
  2964   O3    0.379    2.468    0.456   Oh   136      2uB  -0.755000
  2965  H3O   -0.013    2.797   -0.365   Ho   136      2uB   0.421000
  2966   O2    0.775    0.978    2.867   Os   136      2uB  -0.452000
  2967   C1   -0.417   -1.313   -1.461   Cg   137      2xA   0.482000
  2968   H1   -0.202   -1.630   -2.481   H2   137      2xA   0.000000
  2969   O5    0.590   -1.884   -0.567   Os   137      2xA  -0.588000
  2970   C5    0.569   -1.442    0.855   Cg   137      2xA   0.335000
  2971  H5A   -0.334   -1.828    1.331   H1   137      2xA   0.000000
  2972  H5E    1.428   -1.871    1.371   H1   137      2xA   0.000000
  2973   C4    0.606    0.093    0.957   Cg   137      2xA   0.247000
  2974   H4    1.585    0.446    0.627   H1   137      2xA   0.000000
  2975   O4    0.418    0.470    2.347   Oh   137      2xA  -0.720000
  2976  H4O    0.381    1.435    2.392   Ho   137      2xA   0.420000
  2977   C3   -0.498    0.725    0.077   Cg   137      2xA   0.359000
  2978   H3   -1.480    0.488    0.491   H1   137      2xA   0.000000
  2979   O3   -0.326    2.165    0.081   Oh   137      2xA  -0.712000
  2980  H3O   -0.861    2.520   -0.641   Ho   137      2xA   0.421000
  2981   C2   -0.428    0.237   -1.386   Cg   137      2xA   0.197000
  2982   H2    0.503    0.598   -1.826   H1   137      2xA   0.000000
  2983   O2   -1.535    0.793   -2.166   Os   137      2xA  -0.441000
  2984   C1   -1.394   -1.009    1.101   Cg   138      2xB   0.248000
  2985   H1   -0.751   -1.400    1.891   H2   138      2xB   0.000000
  2986   C2   -1.140    0.512    0.886   Cg   138      2xB   0.425000
  2987   H2   -1.908    0.917    0.224   H1   138      2xB   0.000000
  2988   C3    0.258    0.763    0.272   Cg   138      2xB   0.228000
  2989   H3    1.021    0.517    1.014   H1   138      2xB   0.000000
  2990   C4    0.484   -0.104   -0.988   Cg   138      2xB   0.286000
  2991   H4   -0.178    0.233   -1.788   H1   138      2xB   0.000000
  2992   C5    0.214   -1.595   -0.706   Cg   138      2xB   0.303000
  2993  H5A    0.950   -1.990   -0.002   H1   138      2xB   0.000000
  2994  H5E    0.283   -2.170   -1.629   H1   138      2xB   0.000000
  2995   O5   -1.142   -1.760   -0.132   Os   138      2xB  -0.447000
  2996   O4    1.856    0.039   -1.425   Oh   138      2xB  -0.723000
  2997  H4O    2.039    0.985   -1.494   Ho   138      2xB   0.430000
  2998   O3    0.400    2.168   -0.088   Oh   138      2xB  -0.682000
  2999  H3O    0.225    2.701    0.700   Ho   138      2xB   0.427000
  3000   O2   -1.216    1.192    2.166   Os   138      2xB  -0.495000
  3001   C1   -0.745   -0.835    1.788   Cg   139      2zA   0.398000
  3002   H1   -1.602   -1.033    2.432   H2   139      2zA   0.000000
  3003   O5   -1.002   -1.412    0.474   Os   139      2zA  -0.544000
  3004   C5    0.001   -1.150   -0.631   Cg   139      2zA   0.187000
  3005   H5    0.935   -1.606   -0.296   H1   139      2zA   0.000000
  3006   C6   -0.270   -1.822   -2.054    C   139      2zA   0.798000
  3007  O6B   -1.095   -2.761   -2.122   O2   139      2zA  -0.787000
  3008  O6A    0.408   -1.410   -3.032   O2   139      2zA  -0.787000
  3009   C4    0.269    0.371   -0.758   Cg   139      2zA   0.193000
  3010   H4   -0.595    0.836   -1.236   H1   139      2zA   0.000000
  3011   O4    1.425    0.537   -1.621   Oh   139      2zA  -0.682000
  3012  H4O    1.261   -0.036   -2.403   Ho   139      2zA   0.422000
  3013   C3    0.534    1.063    0.609   Cg   139      2zA   0.300000
  3014   H3    1.521    0.770    0.970   H1   139      2zA   0.000000
  3015   O3    0.507    2.513    0.458   Oh   139      2zA  -0.743000
  3016  H3O    0.559    2.890    1.341   Ho   139      2zA   0.439000
  3017   C2   -0.517    0.696    1.684   Cg   139      2zA   0.326000
  3018   H2   -1.468    1.151    1.405   H1   139      2zA   0.000000
  3019   O2   -0.125    1.238    2.990   Os   139      2zA  -0.520000
  3020   C1   -1.615   -0.577    1.391   Cg   140      2zB   0.251000
  3021   H1   -1.019   -0.987    2.207   H2   140      2zB   0.000000
  3022   C2   -1.336    0.944    1.214   Cg   140      2zB   0.411000
  3023   H2   -2.071    1.364    0.525   H1   140      2zB   0.000000
  3024   C3    0.089    1.195    0.656   Cg   140      2zB   0.266000
  3025   H3    0.817    0.976    1.440   H1   140      2zB   0.000000
  3026   C4    0.403    0.307   -0.578   Cg   140      2zB   0.267000
  3027   H4   -0.191    0.649   -1.428   H1   140      2zB   0.000000
  3028   C5    0.099   -1.187   -0.347   Cg   140      2zB   0.075000
  3029   H5    0.758   -1.545    0.447   H1   140      2zB   0.000000
  3030   C6    0.471   -2.048   -1.623    C   140      2zB   0.893000
  3031  O6A   -0.298   -2.979   -1.954   O2   140      2zB  -0.818000
  3032  O6B    1.540   -1.763   -2.221   O2   140      2zB  -0.818000
  3033   O5   -1.307   -1.308    0.166   Os   140      2zB  -0.413000
  3034   O4    1.806    0.456   -0.910   Oh   140      2zB  -0.733000
  3035  H4O    2.003   -0.278   -1.540   Ho   140      2zB   0.429000
  3036   O3    0.252    2.586    0.246   Oh   140      2zB  -0.701000
  3037  H3O    1.103    2.625   -0.210   Ho   140      2zB   0.403000
  3038   O2   -1.505    1.569    2.520   Os   140      2zB  -0.512000
  3039   C1   -0.934   -1.636    0.286   Cg   141      3aA   0.448000
  3040   H1   -1.854   -2.026    0.725   H2   141      3aA   0.000000
  3041   O5   -1.278   -0.968   -0.994   Os   141      3aA  -0.564000
  3042   C5   -0.228   -0.167   -1.660   Cg   141      3aA   0.379000
  3043  H5A    0.589   -0.822   -1.965   H1   141      3aA   0.000000
  3044  H5E   -0.646    0.299   -2.552   H1   141      3aA   0.000000
  3045   C4    0.265    0.902   -0.679   Cg   141      3aA   0.245000
  3046   H4   -0.563    1.581   -0.469   H1   141      3aA   0.000000
  3047   O4    1.310    1.664   -1.303   Oh   141      3aA  -0.748000
  3048  H4O    2.057    1.090   -1.488   Ho   141      3aA   0.434000
  3049   C3    0.762    0.309    0.656   Cg   141      3aA   0.335000
  3050   H3    1.000    1.114    1.354   H1   141      3aA   0.000000
  3051   C2   -0.282   -0.643    1.277   Cg   141      3aA   0.268000
  3052   H2    0.163   -1.188    2.112   H1   141      3aA   0.000000
  3053   O2   -1.340    0.171    1.809   Oh   141      3aA  -0.735000
  3054  H2O   -0.979    0.783    2.455   Ho   141      3aA   0.443000
  3055   O3    1.958   -0.464    0.438   Os   141      3aA  -0.505000
  3056   C1   -1.358   -0.800    1.011   Cg   142      3aB   0.379000
  3057   H1   -0.822   -1.205    1.870   H2   142      3aB   0.000000
  3058   C2   -1.023    0.717    0.836   Cg   142      3aB   0.300000
  3059   H2   -1.205    1.240    1.776   H1   142      3aB   0.000000
  3060   O2   -1.846    1.335   -0.199   Oh   142      3aB  -0.700000
  3061  H2O   -2.758    1.061   -0.041   Ho   142      3aB   0.418000
  3062   C3    0.456    0.871    0.425   Cg   142      3aB   0.297000
  3063   H3    0.666    1.918    0.203   H1   142      3aB   0.000000
  3064   C4    0.793    0.007   -0.818   Cg   142      3aB   0.224000
  3065   H4    0.218    0.373   -1.670   H1   142      3aB   0.000000
  3066   C5    0.417   -1.475   -0.585   Cg   142      3aB   0.356000
  3067  H5A    1.047   -1.912    0.191   H1   142      3aB   0.000000
  3068  H5E    0.567   -2.046   -1.501   H1   142      3aB   0.000000
  3069   O5   -1.007   -1.584   -0.177   Os   142      3aB  -0.529000
  3070   O4    2.207    0.127   -1.154   Oh   142      3aB  -0.730000
  3071  H4O    2.349    0.903   -1.707   Ho   142      3aB   0.440000
  3072   O3    1.300    0.470    1.540   Os   142      3aB  -0.455000
  3073   C2   -0.601   -0.980    0.817   Cg   143      3bA   0.130000
  3074   C1   -1.987   -1.369    1.417   Cg   143      3bA   0.428000
  3075  H11   -2.186   -2.425    1.232   H1   143      3bA   0.000000
  3076  H12   -1.984   -1.216    2.497   H1   143      3bA   0.000000
  3077   O1   -3.060   -0.586    0.853   Oh   143      3bA  -0.678000
  3078  H1O   -2.994    0.300    1.221   Ho   143      3bA   0.399000
  3079   O6   -0.456   -1.520   -0.557   Os   143      3bA  -0.507000
  3080   C6    0.800   -1.193   -1.292   Cg   143      3bA   0.341000
  3081  H6A    1.630   -1.725   -0.824   H1   143      3bA   0.000000
  3082  H6E    0.711   -1.549   -2.318   H1   143      3bA   0.000000
  3083   C5    1.070    0.327   -1.281   Cg   143      3bA   0.224000
  3084   H5    0.328    0.813   -1.916   H1   143      3bA   0.000000
  3085   O5    2.388    0.564   -1.852   Oh   143      3bA  -0.690000
  3086  H5O    2.446    1.478   -2.150   Ho   143      3bA   0.429000
  3087   C4    0.987    0.913    0.151   Cg   143      3bA   0.335000
  3088   H4    1.788    0.507    0.772   H1   143      3bA   0.000000
  3089   O4    1.141    2.365    0.087   Oh   143      3bA  -0.724000
  3090  H4O    2.078    2.578    0.155   Ho   143      3bA   0.421000
  3091   C3   -0.388    0.564    0.770   Cg   143      3bA   0.372000
  3092   H3   -1.155    0.999    0.127   H1   143      3bA   0.000000
  3093   O3   -0.555    1.156    2.090   Os   143      3bA  -0.480000
  3094   C2   -1.386   -0.580    0.478   Cg   144      3bB   0.227000
  3095   C1   -0.663   -1.195    1.720   Cg   144      3bB   0.281000
  3096  H11    0.406   -0.990    1.672   H1   144      3bB   0.000000
  3097  H12   -1.045   -0.750    2.640   H1   144      3bB   0.000000
  3098   O1   -0.847   -2.626    1.792   Oh   144      3bB  -0.626000
  3099  H1O   -0.395   -2.968    2.566   Ho   144      3bB   0.395000
  3100   C3   -1.086    0.941    0.274   Cg   144      3bB   0.464000
  3101   H3   -1.786    1.339   -0.463   H1   144      3bB   0.000000
  3102   C4    0.356    1.201   -0.231   Cg   144      3bB   0.108000
  3103   H4    1.063    0.941    0.560   H1   144      3bB   0.000000
  3104   C5    0.657    0.348   -1.484   Cg   144      3bB   0.340000
  3105   H5    0.068    0.715   -2.325   H1   144      3bB   0.000000
  3106   C6    0.349   -1.149   -1.271   Cg   144      3bB   0.311000
  3107  H6A    1.045   -1.586   -0.554   H1   144      3bB   0.000000
  3108  H6E    0.449   -1.690   -2.212   H1   144      3bB   0.000000
  3109   O6   -1.038   -1.309   -0.764   Os   144      3bB  -0.477000
  3110   O5    2.060    0.494   -1.795   Oh   144      3bB  -0.720000
  3111  H5O    2.245    1.442   -1.772   Ho   144      3bB   0.429000
  3112   O4    0.535    2.612   -0.561   Oh   144      3bB  -0.675000
  3113  H4O    0.291    3.143    0.211   Ho   144      3bB   0.435000
  3114   O3   -1.280    1.666    1.519   Os   144      3bB  -0.492000
  3115   C2   -0.676   -0.841    0.917   Cg   145      3cA   0.345000
  3116   C1   -2.137   -1.177    1.373   Cg   145      3cA   0.386000
  3117  H11   -2.277   -2.258    1.417   H1   145      3cA   0.000000
  3118  H12   -2.306   -0.781    2.375   H1   145      3cA   0.000000
  3119   O1   -3.141   -0.625    0.489   Oh   145      3cA  -0.696000
  3120  H1O   -2.829    0.254    0.231   Ho   145      3cA   0.402000
  3121   O6   -0.405   -1.426   -0.418   Os   145      3cA  -0.620000
  3122   C6    0.860   -1.071   -1.105   Cg   145      3cA   0.437000
  3123  H6A    1.704   -1.493   -0.558   H1   145      3cA   0.000000
  3124  H6E    0.853   -1.511   -2.102   H1   145      3cA   0.000000
  3125   C5    0.980    0.459   -1.208   Cg   145      3cA   0.195000
  3126   H5    0.127    0.840   -1.772   H1   145      3cA   0.000000
  3127   O5    2.193    0.854   -1.922   Oh   145      3cA  -0.709000
  3128  H5O    2.053    0.826   -2.875   Ho   145      3cA   0.415000
  3129   C4    0.950    1.077    0.207   Cg   145      3cA   0.367000
  3130   H4    0.993    2.163    0.110   H1   145      3cA   0.000000
  3131   O4    2.127    0.671    0.950   Oh   145      3cA  -0.720000
  3132  H4O    2.895    0.853    0.395   Ho   145      3cA   0.394000
  3133   C3   -0.332    0.694    0.990   Cg   145      3cA   0.247000
  3134   H3   -0.204    0.974    2.038   H1   145      3cA   0.000000
  3135   O3   -1.427    1.517    0.467   Os   145      3cA  -0.443000
  3136   C2   -1.446   -0.432    0.419   Cg   146      3cB   0.244000
  3137   C1   -0.761   -1.093    1.658   Cg   146      3cB   0.297000
  3138  H11    0.322   -1.020    1.585   H1   146      3cB   0.000000
  3139  H12   -1.067   -0.581    2.572   H1   146      3cB   0.000000
  3140   O1   -1.101   -2.495    1.774   Oh   146      3cB  -0.669000
  3141  H1O   -0.646   -2.873    2.531   Ho   146      3cB   0.401000
  3142   C3   -1.101    1.092    0.269   Cg   146      3cB   0.317000
  3143   H3   -1.182    1.577    1.243   H1   146      3cB   0.000000
  3144   C4    0.311    1.341   -0.323   Cg   146      3cB   0.344000
  3145   H4    0.409    2.394   -0.592   H1   146      3cB   0.000000
  3146   C5    0.571    0.482   -1.585   Cg   146      3cB   0.195000
  3147   H5   -0.093    0.828   -2.378   H1   146      3cB   0.000000
  3148   C6    0.274   -1.008   -1.340   Cg   146      3cB   0.365000
  3149  H6A    0.978   -1.429   -0.621   H1   146      3cB   0.000000
  3150  H6E    0.368   -1.567   -2.271   H1   146      3cB   0.000000
  3151   O6   -1.108   -1.158   -0.826   Os   146      3cB  -0.460000
  3152   O5    1.940    0.653   -2.054   Oh   146      3cB  -0.684000
  3153  H5O    2.538    0.622   -1.297   Ho   146      3cB   0.415000
  3154   O4    1.322    1.058    0.690   Oh   146      3cB  -0.698000
  3155  H4O    1.523    1.871    1.167   Ho   146      3cB   0.417000
  3156   O3   -2.050    1.736   -0.622   Os   146      3cB  -0.484000
  3157   C1   -0.552   -1.221   -1.303   Cg   147      3dA   0.398000
  3158   H1   -0.308   -1.560   -2.310   H2   147      3dA   0.000000
  3159   O5    0.407   -1.825   -0.366   Os   147      3dA  -0.487000
  3160   C5    0.424   -1.309    1.031   Cg   147      3dA   0.275000
  3161  H5A   -0.483   -1.647    1.536   H1   147      3dA   0.000000
  3162  H5E    1.277   -1.739    1.556   H1   147      3dA   0.000000
  3163   C4    0.502    0.231    1.069   Cg   147      3dA   0.351000
  3164   H4    1.480    0.562    0.717   H1   147      3dA   0.000000
  3165   O4    0.322    0.666    2.437   Oh   147      3dA  -0.711000
  3166  H4O    0.200    1.624    2.401   Ho   147      3dA   0.422000
  3167   C3   -0.616    0.845    0.197   Cg   147      3dA   0.184000
  3168   H3   -1.581    0.532    0.598   H1   147      3dA   0.000000
  3169   C2   -0.523    0.337   -1.264   Cg   147      3dA   0.246000
  3170   H2   -1.365    0.730   -1.836   H1   147      3dA   0.000000
  3171   O2    0.705    0.817   -1.887   Oh   147      3dA  -0.678000
  3172  H2O    0.692    0.656   -2.835   Ho   147      3dA   0.432000
  3173   O3   -0.581    2.302    0.256   Os   147      3dA  -0.432000
  3174   C1    1.378   -1.015    0.772   Cg   148      3dB   0.448000
  3175   H1    1.704   -1.561   -0.115   H2   148      3dB   0.000000
  3176   C2    1.324    0.495    0.456   Cg   148      3dB   0.226000
  3177   H2    2.307    0.850    0.143   H1   148      3dB   0.000000
  3178   O2    0.920    1.205    1.649   Oh   148      3dB  -0.645000
  3179  H2O    1.551    1.035    2.351   Ho   148      3dB   0.415000
  3180   C3    0.289    0.740   -0.662   Cg   148      3dB   0.201000
  3181   H3    0.658    0.268   -1.575   H1   148      3dB   0.000000
  3182   C4   -1.098    0.159   -0.318   Cg   148      3dB   0.335000
  3183   H4   -1.564    0.738    0.481   H1   148      3dB   0.000000
  3184   C5   -1.010   -1.319    0.103   Cg   148      3dB   0.275000
  3185  H5A   -0.752   -1.946   -0.753   H1   148      3dB   0.000000
  3186  H5E   -1.970   -1.657    0.493   H1   148      3dB   0.000000
  3187   O5    0.026   -1.489    1.145   Os   148      3dB  -0.519000
  3188   O4   -1.926    0.216   -1.490   Oh   148      3dB  -0.709000
  3189  H4O   -2.016    1.128   -1.774   Ho   148      3dB   0.436000
  3190   O3    0.179    2.155   -0.907   Os   148      3dB  -0.463000
  3191   C1   -0.305   -1.727    0.975   Cg   149      3eA   0.480000
  3192   H1   -1.087   -2.292    1.484   H2   149      3eA   0.000000
  3193   O5   -0.898   -1.096   -0.228   Os   149      3eA  -0.587000
  3194   C5   -0.093   -0.097   -0.976   Cg   149      3eA   0.374000
  3195   H5    0.806   -0.585   -1.359   H1   149      3eA   0.000000
  3196   C6   -0.939    0.395   -2.158   Cg   149      3eA   0.259000
  3197  H61   -1.894    0.792   -1.811   H1   149      3eA   0.000000
  3198  H62   -0.415    1.182   -2.701   H1   149      3eA   0.000000
  3199   O6   -1.174   -0.702   -3.051   Oh   149      3eA  -0.663000
  3200  H6O   -0.334   -1.043   -3.367   Ho   149      3eA   0.406000
  3201   C4    0.314    1.014    0.011   Cg   149      3eA   0.261000
  3202   H4   -0.589    1.532    0.340   H1   149      3eA   0.000000
  3203   O4    1.152    1.976   -0.654   Oh   149      3eA  -0.721000
  3204  H4O    1.965    1.550   -0.937   Ho   149      3eA   0.415000
  3205   C3    1.045    0.478    1.261   Cg   149      3eA   0.328000
  3206   H3    1.213    1.292    1.968   H1   149      3eA   0.000000
  3207   C2    0.258   -0.660    1.940   Cg   149      3eA   0.179000
  3208   H2    0.877   -1.137    2.703   H1   149      3eA   0.000000
  3209   O2   -0.866   -0.064    2.607   Oh   149      3eA  -0.690000
  3210  H2O   -1.366   -0.746    3.063   Ho   149      3eA   0.447000
  3211   O3    2.328   -0.064    0.888   Os   149      3eA  -0.488000
  3212   C1   -1.399   -0.260    1.421   Cg   150      3eB   0.488000
  3213   H1   -0.844   -0.661    2.270   H2   150      3eB   0.000000
  3214   C2   -1.087    1.256    1.227   Cg   150      3eB   0.184000
  3215   H2   -1.275    1.788    2.160   H1   150      3eB   0.000000
  3216   O2   -1.906    1.867    0.179   Oh   150      3eB  -0.697000
  3217  H2O   -2.835    1.706    0.388   Ho   150      3eB   0.432000
  3218   C3    0.390    1.413    0.822   Cg   150      3eB   0.315000
  3219   H3    0.602    2.464    0.618   H1   150      3eB   0.000000
  3220   C4    0.721    0.571   -0.442   Cg   150      3eB   0.320000
  3221   H4    0.138    0.955   -1.281   H1   150      3eB   0.000000
  3222   C5    0.360   -0.920   -0.231   Cg   150      3eB   0.257000
  3223   H5    1.002   -1.337    0.547   H1   150      3eB   0.000000
  3224   C6    0.551   -1.748   -1.517   Cg   150      3eB   0.278000
  3225  H61    1.589   -1.709   -1.848   H1   150      3eB   0.000000
  3226  H62   -0.078   -1.352   -2.315   H1   150      3eB   0.000000
  3227   O6    0.192   -3.121   -1.276   Oh   150      3eB  -0.677000
  3228  H6O   -0.679   -3.133   -0.868   Ho   150      3eB   0.408000
  3229   O5   -1.066   -1.038    0.221   Os   150      3eB  -0.532000
  3230   O4    2.131    0.713   -0.783   Oh   150      3eB  -0.724000
  3231  H4O    2.277    1.550   -1.238   Ho   150      3eB   0.420000
  3232   O3    1.216    0.997    1.944   Os   150      3eB  -0.472000
  3233   C1   -0.640   -1.066   -1.528   Cg   151      3fA   0.399000
  3234   H1   -0.316   -1.472   -2.486   H2   151      3fA   0.000000
  3235   O5    0.264   -1.565   -0.479   Os   151      3fA  -0.494000
  3236   C5    0.097   -0.987    0.889   Cg   151      3fA   0.187000
  3237   H5   -0.869   -1.317    1.272   H1   151      3fA   0.000000
  3238   C6    1.172   -1.598    1.793   Cg   151      3fA   0.065000
  3239  H61    2.179   -1.370    1.442   Hc   151      3fA   0.000000
  3240  H62    1.080   -2.684    1.833   Hc   151      3fA   0.000000
  3241  H63    1.086   -1.228    2.814   Hc   151      3fA   0.000000
  3242   C4    0.069    0.567    0.855   Cg   151      3fA   0.263000
  3243   H4   -0.228    0.933    1.839   H1   151      3fA   0.000000
  3244   O4    1.391    1.090    0.561   Oh   151      3fA  -0.739000
  3245  H4O    1.308    2.049    0.487   Ho   151      3fA   0.447000
  3246   C3   -0.934    1.092   -0.202   Cg   151      3fA   0.228000
  3247   H3   -1.938    0.780    0.088   H1   151      3fA   0.000000
  3248   C2   -0.595    0.498   -1.593   Cg   151      3fA   0.456000
  3249   H2    0.421    0.789   -1.866   H1   151      3fA   0.000000
  3250   O2   -1.481    1.034   -2.626   Oh   151      3fA  -0.804000
  3251  H2O   -1.155    1.898   -2.891   Ho   151      3fA   0.453000
  3252   O3   -0.911    2.556   -0.203   Os   151      3fA  -0.461000
  3253   C1   -1.060   -1.357    0.855   Cg   152      3fB   0.418000
  3254   H1   -0.464   -2.268    0.775   H2   152      3fB   0.000000
  3255   C2   -0.378   -0.353    1.810   Cg   152      3fB   0.346000
  3256   H2   -1.079    0.438    2.085   H1   152      3fB   0.000000
  3257   O2    0.015   -1.074    2.992   Oh   152      3fB  -0.765000
  3258  H2O   -0.760   -1.466    3.399   Ho   152      3fB   0.440000
  3259   C3    0.892    0.262    1.188   Cg   152      3fB   0.255000
  3260   H3    1.662   -0.509    1.116   H1   152      3fB   0.000000
  3261   C4    0.655    0.826   -0.227   Cg   152      3fB   0.229000
  3262   H4    1.597    1.173   -0.653   H1   152      3fB   0.000000
  3263   C5    0.044   -0.270   -1.126   Cg   152      3fB   0.106000
  3264   H5    0.754   -1.098   -1.185   H1   152      3fB   0.000000
  3265   C6   -0.284    0.155   -2.559   Cg   152      3fB   0.092000
  3266  H61   -0.663   -0.686   -3.142   Hc   152      3fB   0.000000
  3267  H62   -1.041    0.940   -2.591   Hc   152      3fB   0.000000
  3268  H63    0.602    0.531   -3.073   Hc   152      3fB   0.000000
  3269   O5   -1.199   -0.768   -0.494   Os   152      3fB  -0.442000
  3270   O4   -0.267    1.937   -0.162   Oh   152      3fB  -0.659000
  3271  H4O   -0.421    2.277   -1.046   Ho   152      3fB   0.423000
  3272   O3    1.395    1.310    2.039   Os   152      3fB  -0.443000
  3273   C1   -0.761   -0.473    1.828   Cg   153      3gA   0.509000
  3274   H1   -1.638   -0.634    2.456   H2   153      3gA   0.000000
  3275   O5   -0.991   -1.096    0.526   Os   153      3gA  -0.574000
  3276   C5    0.029   -0.869   -0.551   Cg   153      3gA   0.283000
  3277   H5    0.972   -1.317   -0.230   H1   153      3gA   0.000000
  3278   C6   -0.426   -1.566   -1.853   Cg   153      3gA   0.276000
  3279  H61   -1.463   -1.308   -2.072   H1   153      3gA   0.000000
  3280  H62    0.186   -1.243   -2.696   H1   153      3gA   0.000000
  3281   O6   -0.306   -3.000   -1.737   Oh   153      3gA  -0.682000
  3282  H6O    0.611   -3.259   -1.853   Ho   153      3gA   0.418000
  3283   C4    0.253    0.646   -0.738   Cg   153      3gA   0.254000
  3284   H4   -0.646    1.094   -1.167   H1   153      3gA   0.000000
  3285   O4    1.360    0.851   -1.653   Oh   153      3gA  -0.710000
  3286  H4O    1.558    1.798   -1.656   Ho   153      3gA   0.436000
  3287   C3    0.580    1.335    0.608   Cg   153      3gA   0.286000
  3288   H3    1.551    0.990    0.970   H1   153      3gA   0.000000
  3289   C2   -0.493    1.053    1.681   Cg   153      3gA   0.246000
  3290   H2   -1.426    1.523    1.367   H1   153      3gA   0.000000
  3291   O2   -0.098    1.654    2.958   Oh   153      3gA  -0.713000
  3292  H2O    0.499    1.051    3.421   Ho   153      3gA   0.437000
  3293   O3    0.648    2.769    0.390   Os   153      3gA  -0.466000
  3294   C1   -1.387   -0.197    1.344   Cg   154      3gB   0.384000
  3295   H1   -0.813   -0.597    2.182   H2   154      3gB   0.000000
  3296   C2   -1.037    1.296    1.090   Cg   154      3gB   0.310000
  3297   H2   -1.735    1.710    0.359   H1   154      3gB   0.000000
  3298   O2   -1.150    2.055    2.329   Oh   154      3gB  -0.718000
  3299  H2O   -2.035    1.909    2.689   Ho   154      3gB   0.437000
  3300   C3    0.406    1.425    0.552   Cg   154      3gB   0.284000
  3301   H3    1.107    1.164    1.347   H1   154      3gB   0.000000
  3302   C4    0.658    0.505   -0.668   Cg   154      3gB   0.276000
  3303   H4    0.064    0.855   -1.514   H1   154      3gB   0.000000
  3304   C5    0.285   -0.959   -0.352   Cg   154      3gB   0.225000
  3305   H5    0.942   -1.333    0.436   H1   154      3gB   0.000000
  3306   C6    0.417   -1.879   -1.581   Cg   154      3gB   0.282000
  3307  H61    1.447   -1.898   -1.937   H1   154      3gB   0.000000
  3308  H62   -0.220   -1.521   -2.391   H1   154      3gB   0.000000
  3309   O6    0.021   -3.219   -1.232   Oh   154      3gB  -0.688000
  3310  H6O   -0.855   -3.181   -0.836   Ho   154      3gB   0.424000
  3311   O5   -1.123   -1.003    0.149   Os   154      3gB  -0.471000
  3312   O4    2.060    0.566   -1.025   Oh   154      3gB  -0.714000
  3313  H4O    2.300    1.499   -1.097   Ho   154      3gB   0.440000
  3314   O3    0.648    2.803    0.157   Os   154      3gB  -0.471000
  3315   C1   -0.523   -1.050   -1.741   Cg   155      3hA   0.394000
  3316   H1   -0.088   -1.425   -2.667   H2   155      3hA   0.000000
  3317   O5    0.315   -1.495   -0.615   Os   155      3hA  -0.461000
  3318   C5    0.035   -0.928    0.730   Cg   155      3hA   0.279000
  3319   H5   -0.938   -1.297    1.058   H1   155      3hA   0.000000
  3320   C6    1.104   -1.482    1.673   Cg   155      3hA   0.023000
  3321  H61    2.104   -1.153    1.387   Hc   155      3hA   0.000000
  3322  H62    1.105   -2.573    1.674   Hc   155      3hA   0.000000
  3323  H63    0.935   -1.161    2.701   Hc   155      3hA   0.000000
  3324   C4   -0.009    0.620    0.672   Cg   155      3hA   0.187000
  3325   H4    0.990    1.010    0.470   H1   155      3hA   0.000000
  3326   O4   -0.466    1.141    1.952   Oh   155      3hA  -0.644000
  3327  H4O    0.230    1.059    2.612   Ho   155      3hA   0.405000
  3328   C3   -0.983    1.088   -0.432   Cg   155      3hA   0.236000
  3329   H3   -1.994    0.768   -0.168   H1   155      3hA   0.000000
  3330   C2   -0.632    0.499   -1.816   Cg   155      3hA   0.248000
  3331   H2   -1.405    0.776   -2.534   H1   155      3hA   0.000000
  3332   O2    0.632    1.054   -2.279   Oh   155      3hA  -0.670000
  3333  H2O    0.570    2.011   -2.177   Ho   155      3hA   0.421000
  3334   O3   -0.983    2.538   -0.502   Os   155      3hA  -0.418000
  3335   C1   -2.080    0.071   -0.261   Cg   156      3hB   0.381000
  3336   H1   -2.193    1.095   -0.619   H2   156      3hB   0.000000
  3337   C2   -1.325   -0.765   -1.313   Cg   156      3hB   0.243000
  3338   H2   -1.872   -0.768   -2.257   H1   156      3hB   0.000000
  3339   O2   -1.201   -2.123   -0.831   Oh   156      3hB  -0.673000
  3340  H2O   -0.714   -2.646   -1.472   Ho   156      3hB   0.432000
  3341   C3    0.081   -0.165   -1.516   Cg   156      3hB   0.182000
  3342   H3   -0.037    0.827   -1.958   H1   156      3hB   0.000000
  3343   C4    0.869   -0.036   -0.196   Cg   156      3hB   0.388000
  3344   H4    1.165   -1.026    0.159   H1   156      3hB   0.000000
  3345   C5    0.055    0.690    0.901   Cg   156      3hB   0.172000
  3346   H5   -0.058    1.741    0.628   H1   156      3hB   0.000000
  3347  C6M    0.677    0.615    2.297   Cg   156      3hB   0.039000
  3348  H3M    1.661    1.084    2.321   Hc   156      3hB   0.000000
  3349  H2M    0.796   -0.417    2.631   Hc   156      3hB   0.000000
  3350  H1M    0.058    1.129    3.034   Hc   156      3hB   0.000000
  3351   O5   -1.300    0.095    0.996   Os   156      3hB  -0.427000
  3352   O4    2.047    0.746   -0.454   Oh   156      3hB  -0.728000
  3353  H4O    2.556    0.834    0.356   Ho   156      3hB   0.432000
  3354   O3    0.816   -0.982   -2.446   Os   156      3hB  -0.441000
  3355   C2   -0.573   -0.933    0.888   Cg   157      3jA   0.114000
  3356   C1   -1.948   -1.287    1.537   Cg   157      3jA   0.410000
  3357  H11   -2.058   -2.368    1.633   H1   157      3jA   0.000000
  3358  H12   -2.008   -0.853    2.536   H1   157      3jA   0.000000
  3359   O1   -3.041   -0.783    0.751   Oh   157      3jA  -0.656000
  3360  H1O   -2.710    0.031    0.340   Ho   157      3jA   0.405000
  3361   O6   -0.471   -1.527   -0.466   Os   157      3jA  -0.504000
  3362   C6    0.729   -1.218   -1.291   Cg   157      3jA   0.368000
  3363  H6A    1.589   -1.734   -0.862   H1   157      3jA   0.000000
  3364  H6E    0.576   -1.606   -2.298   H1   157      3jA   0.000000
  3365   C5    0.999    0.298   -1.346   Cg   157      3jA   0.273000
  3366   H5    0.218    0.783   -1.933   H1   157      3jA   0.000000
  3367   O5    2.278    0.520   -2.001   Oh   157      3jA  -0.699000
  3368  H5O    2.456    1.468   -1.996   Ho   157      3jA   0.419000
  3369   C4    1.034    0.895    0.080   Cg   157      3jA   0.281000
  3370   H4    1.871    0.455    0.626   H1   157      3jA   0.000000
  3371   O4    1.252    2.338    0.025   Oh   157      3jA  -0.672000
  3372  H4O    1.645    2.635    0.854   Ho   157      3jA   0.413000
  3373   C3   -0.278    0.599    0.850   Cg   157      3jA   0.271000
  3374   H3   -0.186    0.977    1.870   H1   157      3jA   0.000000
  3375   O3   -1.376    1.308    0.204   Os   157      3jA  -0.423000
  3376   C2   -1.335   -0.637    0.593   Cg   158      3jB   0.413000
  3377   C1   -0.508   -1.149    1.820   Cg   158      3jB   0.280000
  3378  H11    0.503   -0.746    1.791   H1   158      3jB   0.000000
  3379  H12   -0.969   -0.804    2.746   H1   158      3jB   0.000000
  3380   O1   -0.403   -2.589    1.863   Oh   158      3jB  -0.722000
  3381  H1O   -1.266   -2.953    1.630   Ho   158      3jB   0.432000
  3382   C3   -1.202    0.914    0.403   Cg   158      3jB   0.363000
  3383   H3   -1.389    1.420    1.352   H1   158      3jB   0.000000
  3384   C4    0.215    1.282   -0.111   Cg   158      3jB   0.155000
  3385   H4    0.938    1.030    0.664   H1   158      3jB   0.000000
  3386   C5    0.585    0.502   -1.398   Cg   158      3jB   0.374000
  3387   H5   -0.032    0.851   -2.227   H1   158      3jB   0.000000
  3388   C6    0.381   -1.022   -1.227   Cg   158      3jB   0.292000
  3389  H6A    1.139   -1.428   -0.555   H1   158      3jB   0.000000
  3390  H6E    0.486   -1.522   -2.190   H1   158      3jB   0.000000
  3391   O6   -0.960   -1.322   -0.669   Os   158      3jB  -0.551000
  3392   O5    1.981    0.768   -1.710   Oh   158      3jB  -0.729000
  3393  H5O    2.564    0.356   -1.066   Ho   158      3jB   0.426000
  3394   O4    0.307    2.722   -0.329   Oh   158      3jB  -0.684000
  3395  H4O    1.129    2.919   -0.801   Ho   158      3jB   0.438000
  3396   O3   -2.164    1.409   -0.579   Os   158      3jB  -0.487000
  3397   C1   -0.414   -1.683    0.949   Cg   159      3kA   0.473000
  3398   H1   -1.204   -2.217    1.478   H2   159      3kA   0.000000
  3399   O5   -1.015   -0.983   -0.209   Os   159      3kA  -0.540000
  3400   C5   -0.138   -0.060   -0.981   Cg   159      3kA   0.301000
  3401   H5    0.693   -0.642   -1.386   H1   159      3kA   0.000000
  3402   C6   -0.934    0.500   -2.169   Cg   159      3kA   0.287000
  3403  H61   -1.848    0.989   -1.828   H1   159      3kA   0.000000
  3404  H62   -0.334    1.229   -2.714   H1   159      3kA   0.000000
  3405   O6   -1.272   -0.577   -3.052   Oh   159      3kA  -0.691000
  3406  H6O   -0.469   -1.001   -3.363   Ho   159      3kA   0.422000
  3407   C4    0.463    1.010   -0.037   Cg   159      3kA   0.196000
  3408   H4    1.192    1.608   -0.585   H1   159      3kA   0.000000
  3409   O4   -0.583    1.890    0.414   Oh   159      3kA  -0.712000
  3410  H4O   -1.003    2.303   -0.345   Ho   159      3kA   0.420000
  3411   C3    1.125    0.404    1.217   Cg   159      3kA   0.354000
  3412   H3    1.381    1.194    1.925   H1   159      3kA   0.000000
  3413   C2    0.198   -0.627    1.895   Cg   159      3kA   0.281000
  3414   H2   -0.640   -0.068    2.313   H1   159      3kA   0.000000
  3415   O2    0.860   -1.258    3.006   Oh   159      3kA  -0.716000
  3416  H2O    1.597   -1.781    2.683   Ho   159      3kA   0.427000
  3417   O3    2.346   -0.229    0.790   Os   159      3kA  -0.502000
  3418   C1   -1.268   -0.334    1.388   Cg   160      3kB   0.449000
  3419   H1   -0.686   -0.766    2.204   H2   160      3kB   0.000000
  3420   C2   -0.963    1.183    1.219   Cg   160      3kB   0.308000
  3421   H2   -1.654    1.602    0.486   H1   160      3kB   0.000000
  3422   O2   -1.141    1.915    2.472   Oh   160      3kB  -0.710000
  3423  H2O   -2.041    1.759    2.785   Ho   160      3kB   0.426000
  3424   C3    0.481    1.390    0.705   Cg   160      3kB   0.253000
  3425   H3    0.642    2.450    0.504   H1   160      3kB   0.000000
  3426   C4    0.761    0.576   -0.578   Cg   160      3kB   0.217000
  3427   H4    1.819    0.652   -0.831   H1   160      3kB   0.000000
  3428   C5    0.399   -0.922   -0.381   Cg   160      3kB   0.303000
  3429   H5    1.085   -1.336    0.360   H1   160      3kB   0.000000
  3430   C6    0.546   -1.753   -1.671   Cg   160      3kB   0.259000
  3431  H61    1.546   -1.624   -2.087   H1   160      3kB   0.000000
  3432  H62   -0.179   -1.432   -2.418   H1   160      3kB   0.000000
  3433   O6    0.339   -3.150   -1.388   Oh   160      3kB  -0.670000
  3434  H6O   -0.535   -3.253   -0.999   Ho   160      3kB   0.416000
  3435   O5   -0.996   -1.069    0.150   Os   160      3kB  -0.514000
  3436   O4    0.001    1.155   -1.675   Oh   160      3kB  -0.700000
  3437  H4O    0.405    1.982   -1.963   Ho   160      3kB   0.425000
  3438   O3    1.438    0.976    1.716   Os   160      3kB  -0.462000
  3439   C1   -0.483   -1.657    0.945   Cg   161      3lA   0.465000
  3440   H1   -1.297   -2.173    1.454   H2   161      3lA   0.000000
  3441   O5   -1.036   -0.949   -0.233   Os   161      3lA  -0.527000
  3442   C5   -0.107   -0.059   -0.986   Cg   161      3lA   0.216000
  3443   H5    0.729   -0.662   -1.346   H1   161      3lA   0.000000
  3444   C6   -0.842    0.502   -2.212   Cg   161      3lA   0.308000
  3445  H61   -1.759    1.013   -1.916   H1   161      3lA   0.000000
  3446  H62   -0.205    1.210   -2.741   H1   161      3lA   0.000000
  3447   O6   -1.166   -0.582   -3.093   Oh   161      3lA  -0.684000
  3448  H6O   -0.359   -1.025   -3.365   Ho   161      3lA   0.418000
  3449   C4    0.467    1.006   -0.027   Cg   161      3lA   0.204000
  3450   H4    1.207    1.612   -0.552   H1   161      3lA   0.000000
  3451   O4   -0.615    1.863    0.402   Oh   161      3lA  -0.673000
  3452  H4O   -1.019    2.277   -0.364   Ho   161      3lA   0.436000
  3453   C3    1.118    0.332    1.199   Cg   161      3lA   0.253000
  3454   H3    1.990   -0.231    0.864   H1   161      3lA   0.000000
  3455   C2    0.141   -0.623    1.911   Cg   161      3lA   0.339000
  3456   H2   -0.670   -0.039    2.350   H1   161      3lA   0.000000
  3457   O2    0.816   -1.313    2.980   Oh   161      3lA  -0.724000
  3458  H2O    1.522   -1.852    2.616   Ho   161      3lA   0.431000
  3459   O3    1.568    1.350    2.114   Os   161      3lA  -0.462000
  3460   C1   -1.272   -0.242    1.388   Cg   162      3lB   0.374000
  3461   H1   -0.700   -0.640    2.228   H2   162      3lB   0.000000
  3462   C2   -0.921    1.257    1.153   Cg   162      3lB   0.357000
  3463   H2   -1.622    1.690    0.437   H1   162      3lB   0.000000
  3464   O2   -1.019    1.992    2.410   Oh   162      3lB  -0.726000
  3465  H2O   -1.903    1.845    2.768   Ho   162      3lB   0.432000
  3466   C3    0.523    1.388    0.614   Cg   162      3lB   0.259000
  3467   H3    1.218    1.065    1.392   H1   162      3lB   0.000000
  3468   C4    0.762    0.511   -0.637   Cg   162      3lB   0.203000
  3469   H4    1.812    0.576   -0.927   H1   162      3lB   0.000000
  3470   C5    0.403   -0.962   -0.342   Cg   162      3lB   0.140000
  3471   H5    1.088   -1.323    0.427   H1   162      3lB   0.000000
  3472   C6    0.546   -1.878   -1.571   Cg   162      3lB   0.319000
  3473  H61    1.543   -1.782   -2.001   H1   162      3lB   0.000000
  3474  H62   -0.187   -1.618   -2.336   H1   162      3lB   0.000000
  3475   O6    0.343   -3.241   -1.166   Oh   162      3lB  -0.693000
  3476  H6O   -0.532   -3.304   -0.773   Ho   162      3lB   0.419000
  3477   O5   -0.988   -1.054    0.197   Os   162      3lB  -0.402000
  3478   O4   -0.047    0.999   -1.736   Oh   162      3lB  -0.664000
  3479  H4O    0.122    1.948   -1.816   Ho   162      3lB   0.437000
  3480   O3    0.831    2.773    0.291   Os   162      3lB  -0.455000
  3481   C1   -0.801   -0.594    1.890   Cg   163      3mA   0.433000
  3482   H1   -1.734   -0.774    2.424   H2   163      3mA   0.000000
  3483   O5   -0.883   -1.230    0.567   Os   163      3mA  -0.507000
  3484   C5    0.191   -0.935   -0.433   Cg   163      3mA   0.276000
  3485   H5    1.120   -1.380   -0.071   H1   163      3mA   0.000000
  3486   C6   -0.173   -1.587   -1.784   Cg   163      3mA   0.266000
  3487  H61   -1.192   -1.319   -2.066   H1   163      3mA   0.000000
  3488  H62    0.496   -1.237   -2.571   H1   163      3mA   0.000000
  3489   O6   -0.062   -3.025   -1.710   Oh   163      3mA  -0.688000
  3490  H6O    0.863   -3.281   -1.684   Ho   163      3mA   0.422000
  3491   C4    0.405    0.591   -0.560   Cg   163      3mA   0.326000
  3492   H4   -0.462    1.049   -1.039   H1   163      3mA   0.000000
  3493   O4    1.577    0.833   -1.382   Oh   163      3mA  -0.733000
  3494  H4O    1.750    1.783   -1.362   Ho   163      3mA   0.438000
  3495   C3    0.633    1.228    0.833   Cg   163      3mA   0.252000
  3496   H3    1.545    0.808    1.264   H1   163      3mA   0.000000
  3497   C2   -0.542    0.936    1.792   Cg   163      3mA   0.245000
  3498   H2   -0.303    1.327    2.782   H1   163      3mA   0.000000
  3499   O2   -1.744    1.616    1.319   Oh   163      3mA  -0.717000
  3500  H2O   -1.510    2.520    1.075   Ho   163      3mA   0.446000
  3501   O3    0.826    2.671    0.719   Os   163      3mA  -0.459000
  3502   C1   -1.321   -0.236    1.520   Cg   164      3mB   0.314000
  3503   H1   -0.687   -0.537    2.355   H2   164      3mB   0.000000
  3504   C2   -1.096    1.266    1.192   Cg   164      3mB   0.241000
  3505   H2   -1.315    1.873    2.071   H1   164      3mB   0.000000
  3506   O2   -1.977    1.670    0.101   Oh   164      3mB  -0.664000
  3507  H2O   -2.880    1.457    0.363   Ho   164      3mB   0.431000
  3508   C3    0.388    1.432    0.788   Cg   164      3mB   0.263000
  3509   H3    1.003    1.083    1.620   H1   164      3mB   0.000000
  3510   C4    0.714    0.572   -0.463   Cg   164      3mB   0.349000
  3511   H4    0.139    0.926   -1.320   H1   164      3mB   0.000000
  3512   C5    0.390   -0.920   -0.194   Cg   164      3mB   0.206000
  3513   H5    1.089   -1.301    0.554   H1   164      3mB   0.000000
  3514   C6    0.519   -1.774   -1.467   Cg   164      3mB   0.273000
  3515  H61    1.532   -1.716   -1.866   H1   164      3mB   0.000000
  3516  H62   -0.171   -1.417   -2.233   H1   164      3mB   0.000000
  3517   O6    0.217   -3.148   -1.167   Oh   164      3mB  -0.680000
  3518  H6O   -0.660   -3.187   -0.772   Ho   164      3mB   0.419000
  3519   O5   -0.995   -1.073    0.355   Os   164      3mB  -0.393000
  3520   O4    2.128    0.683   -0.776   Oh   164      3mB  -0.746000
  3521  H4O    2.271    1.512   -1.245   Ho   164      3mB   0.443000
  3522   O3    0.714    2.837    0.584   Os   164      3mB  -0.456000
  3523   C1   -0.488   -1.705    0.929   Cg   165      3nA   0.478000
  3524   H1   -1.279   -2.289    1.401   H2   165      3nA   0.000000
  3525   O5   -1.049   -1.044   -0.271   Os   165      3nA  -0.611000
  3526   C5   -0.222   -0.023   -0.972   Cg   165      3nA   0.404000
  3527   H5    0.667   -0.513   -1.377   H1   165      3nA   0.000000
  3528   C6   -1.057    0.537   -2.132   Cg   165      3nA   0.280000
  3529  H61   -2.001    0.944   -1.765   H1   165      3nA   0.000000
  3530  H62   -0.515    1.331   -2.645   H1   165      3nA   0.000000
  3531   O6   -1.324   -0.517   -3.067   Oh   165      3nA  -0.663000
  3532  H6O   -0.494   -0.865   -3.403   Ho   165      3nA   0.396000
  3533   C4    0.215    1.046    0.053   Cg   165      3nA   0.167000
  3534   H4   -0.671    1.592    0.382   H1   165      3nA   0.000000
  3535   O4    1.100    1.989   -0.578   Oh   165      3nA  -0.733000
  3536  H4O    1.888    1.533   -0.884   Ho   165      3nA   0.444000
  3537   C3    0.905    0.461    1.303   Cg   165      3nA   0.330000
  3538   H3    1.091    1.251    2.032   H1   165      3nA   0.000000
  3539   C2   -0.015   -0.614    1.914   Cg   165      3nA   0.228000
  3540   H2   -0.911   -0.100    2.264   H1   165      3nA   0.000000
  3541   O2    0.597   -1.207    3.074   Oh   165      3nA  -0.668000
  3542  H2O    1.396   -1.670    2.811   Ho   165      3nA   0.415000
  3543   O3    2.167   -0.137    0.930   Os   165      3nA  -0.467000
  3544   C1   -1.375   -0.256    1.326   Cg   166      3nB   0.422000
  3545   H1   -0.793   -0.662    2.157   H2   166      3nB   0.000000
  3546   C2   -1.071    1.257    1.112   Cg   166      3nB   0.301000
  3547   H2   -1.772    1.657    0.375   H1   166      3nB   0.000000
  3548   O2   -1.233    2.019    2.344   Oh   166      3nB  -0.703000
  3549  H2O   -2.139    1.903    2.658   Ho   166      3nB   0.424000
  3550   C3    0.362    1.458    0.574   Cg   166      3nB   0.234000
  3551   H3    0.520    2.516    0.351   H1   166      3nB   0.000000
  3552   C4    0.567    0.620   -0.708   Cg   166      3nB   0.286000
  3553   H4   -0.130    0.971   -1.471   H1   166      3nB   0.000000
  3554   C5    0.298   -0.881   -0.447   Cg   166      3nB   0.198000
  3555   H5    1.008   -1.250    0.294   H1   166      3nB   0.000000
  3556   C6    0.437   -1.741   -1.718   Cg   166      3nB   0.313000
  3557  H61    1.450   -1.680   -2.115   H1   166      3nB   0.000000
  3558  H62   -0.257   -1.399   -2.485   H1   166      3nB   0.000000
  3559   O6    0.144   -3.112   -1.396   Oh   166      3nB  -0.689000
  3560  H6O   -0.671   -3.124   -0.885   Ho   166      3nB   0.418000
  3561   O5   -1.088   -1.028    0.109   Os   166      3nB  -0.507000
  3562   O4    1.909    0.818   -1.210   Oh   166      3nB  -0.707000
  3563  H4O    2.508    0.863   -0.453   Ho   166      3nB   0.430000
  3564   O3    1.327    1.050    1.588   Os   166      3nB  -0.420000
  3565   C1   -0.534   -0.700    1.685   Cg   167      3oA   0.305000
  3566   H1   -1.418   -0.879    2.298   H2   167      3oA   0.000000
  3567   O5   -0.709   -1.390    0.398   Os   167      3oA  -0.424000
  3568   C5    0.266   -1.076   -0.719   Cg   167      3oA   0.054000
  3569   H5    1.252   -1.430   -0.411   H1   167      3oA   0.000000
  3570   C6   -0.045   -1.698   -2.122    C   167      3oA   0.896000
  3571  O6B   -1.206   -1.545   -2.574   O2   167      3oA  -0.822000
  3572  O6A    0.918   -2.218   -2.729   O2   167      3oA  -0.822000
  3573   C4    0.327    0.450   -0.919   Cg   167      3oA   0.267000
  3574   H4    1.068    0.688   -1.684   H1   167      3oA   0.000000
  3575   O4   -0.983    0.884   -1.381   Oh   167      3oA  -0.704000
  3576  H4O   -1.334    0.164   -1.947   Ho   167      3oA   0.429000
  3577   C3    0.720    1.138    0.414   Cg   167      3oA   0.251000
  3578   H3    1.674    0.720    0.741   H1   167      3oA   0.000000
  3579   C2   -0.338    0.840    1.504   Cg   167      3oA   0.413000
  3580   H2   -1.290    1.287    1.216   H1   167      3oA   0.000000
  3581   O2    0.072    1.428    2.781   Oh   167      3oA  -0.771000
  3582  H2O    0.629    0.763    3.206   Ho   167      3oA   0.431000
  3583   O3    0.928    2.573    0.243   Os   167      3oA  -0.503000
  3584   C1   -1.275   -0.564    1.296   Cg   168      3oB   0.301000
  3585   H1   -0.691   -0.946    2.135   H2   168      3oB   0.000000
  3586   C2   -0.966    0.946    1.061   Cg   168      3oB   0.383000
  3587   H2   -1.711    1.371    0.387   H1   168      3oB   0.000000
  3588   O2   -1.058    1.620    2.353   Oh   168      3oB  -0.732000
  3589  H2O   -1.926    1.409    2.710   Ho   168      3oB   0.401000
  3590   C3    0.451    1.135    0.454   Cg   168      3oB   0.259000
  3591   H3    1.186    0.842    1.206   H1   168      3oB   0.000000
  3592   C4    0.662    0.247   -0.796   Cg   168      3oB   0.260000
  3593   H4    1.689    0.375   -1.141   H1   168      3oB   0.000000
  3594   C5    0.400   -1.232   -0.468   Cg   168      3oB   0.049000
  3595   H5    1.100   -1.515    0.321   H1   168      3oB   0.000000
  3596   C6    0.796   -2.141   -1.691    C   168      3oB   0.838000
  3597  O6A    0.024   -3.072   -2.024   O2   168      3oB  -0.794000
  3598  O6B    1.928   -1.934   -2.193   O2   168      3oB  -0.794000
  3599   O5   -0.981   -1.375    0.115   Os   168      3oB  -0.414000
  3600   O4   -0.235    0.679   -1.851   Oh   168      3oB  -0.661000
  3601  H4O   -0.115    1.626   -1.964   Ho   168      3oB   0.402000
  3602   O3    0.723    2.529    0.091   Os   168      3oB  -0.498000
  3603   C2   -0.592   -1.198    0.125   Cg   169      3pA   0.417000
  3604   C1   -1.894   -1.836    0.647   Cg   169      3pA   0.327000
  3605  H11   -2.259   -2.587   -0.055   H1   169      3pA   0.000000
  3606  H12   -1.724   -2.324    1.607   H1   169      3pA   0.000000
  3607   O1   -2.906   -0.830    0.812   Oh   169      3pA  -0.644000
  3608  H1O   -2.603   -0.173    1.443   Ho   169      3pA   0.393000
  3609   O6   -0.890   -0.569   -1.190   Os   169      3pA  -0.598000
  3610   C6    0.188    0.191   -1.866   Cg   169      3pA   0.393000
  3611  H6A    0.983   -0.496   -2.159   H1   169      3pA   0.000000
  3612  H6E   -0.214    0.652   -2.769   H1   169      3pA   0.000000
  3613   C5    0.722    1.266   -0.908   Cg   169      3pA   0.153000
  3614   H5   -0.076    1.985   -0.720   H1   169      3pA   0.000000
  3615   O5    1.801    1.966   -1.549   Oh   169      3pA  -0.693000
  3616  H5O    2.126    2.656   -0.966   Ho   169      3pA   0.428000
  3617   C4    1.191    0.694    0.444   Cg   169      3pA   0.394000
  3618   H4    1.475    1.506    1.115   H1   169      3pA   0.000000
  3619   O4    2.335   -0.165    0.240   Oh   169      3pA  -0.702000
  3620  H4O    2.615   -0.528    1.083   Ho   169      3pA   0.432000
  3621   C3    0.033   -0.120    1.060   Cg   169      3pA   0.150000
  3622   H3   -0.753    0.601    1.290   H1   169      3pA   0.000000
  3623   O3    0.443   -0.692    2.317   Os   169      3pA  -0.450000
  3624   C2   -1.395   -0.459    0.403   Cg   170      3pB   0.407000
  3625   C1   -0.719   -1.124    1.657   Cg   170      3pB   0.379000
  3626  H11    0.361   -1.001    1.615   H1   170      3pB   0.000000
  3627  H12   -1.070   -0.641    2.570   H1   170      3pB   0.000000
  3628   O1   -0.995   -2.546    1.754   Oh   170      3pB  -0.720000
  3629  H1O   -0.547   -2.906    2.524   Ho   170      3pB   0.410000
  3630   C3   -1.108    1.066    0.224   Cg   170      3pB   0.180000
  3631   H3   -1.831    1.462   -0.492   H1   170      3pB   0.000000
  3632   C4    0.291    1.359   -0.370   Cg   170      3pB   0.328000
  3633   H4    0.356    2.419   -0.621   H1   170      3pB   0.000000
  3634   C5    0.556    0.521   -1.642   Cg   170      3pB   0.188000
  3635   H5   -0.139    0.841   -2.420   H1   170      3pB   0.000000
  3636   C6    0.322   -0.978   -1.379   Cg   170      3pB   0.364000
  3637  H6A    1.047   -1.366   -0.662   H1   170      3pB   0.000000
  3638  H6E    0.425   -1.542   -2.306   H1   170      3pB   0.000000
  3639   O6   -1.050   -1.166   -0.849   Os   170      3pB  -0.540000
  3640   O5    1.905    0.751   -2.133   Oh   170      3pB  -0.705000
  3641  H5O    2.496    0.837   -1.372   Ho   170      3pB   0.433000
  3642   O4    1.307    1.067    0.626   Oh   170      3pB  -0.698000
  3643  H4O    1.080    1.595    1.404   Ho   170      3pB   0.427000
  3644   O3   -1.292    1.811    1.469   Os   170      3pB  -0.453000
  3645   C1   -0.488   -0.942   -1.684   Cg   171      3qA   0.465000
  3646   H1   -0.160   -1.330   -2.649   H1   171      3qA   0.000000
  3647   O5    0.458   -1.387   -0.655   Os   171      3qA  -0.559000
  3648   C5    0.258   -0.871    0.725   Cg   171      3qA   0.234000
  3649   H5   -0.691   -1.260    1.101   H1   171      3qA   0.000000
  3650   C6    1.387   -1.444    1.585   Cg   171      3qA   0.060000
  3651  H61    1.397   -2.535    1.550   Hc   171      3qA   0.000000
  3652  H62    1.276   -1.158    2.632   Hc   171      3qA   0.000000
  3653  H63    2.365   -1.096    1.250   Hc   171      3qA   0.000000
  3654   C4    0.197    0.674    0.711   Cg   171      3qA   0.208000
  3655   H4    1.188    1.068    0.475   H1   171      3qA   0.000000
  3656   O4   -0.189    1.142    2.034   Oh   171      3qA  -0.664000
  3657  H4O    0.557    1.085    2.640   Ho   171      3qA   0.403000
  3658   C3   -0.820    1.202   -0.333   Cg   171      3qA   0.312000
  3659   H3   -1.834    0.951   -0.013   H1   171      3qA   0.000000
  3660   C2   -0.569    0.611   -1.743   Cg   171      3qA   0.281000
  3661   H2    0.392    0.979   -2.105   H1   171      3qA   0.000000
  3662   O2   -1.593    1.021   -2.706   Oh   171      3qA  -0.695000
  3663  H2O   -2.442    0.647   -2.448   Ho   171      3qA   0.422000
  3664   O3   -0.688    2.646   -0.368   Os   171      3qA  -0.467000
  3665   C1   -1.304   -0.490    1.376   Cg   172      3qB   0.391000
  3666   H1   -0.651   -0.906    2.145   H1   172      3qB   0.000000
  3667   C2   -1.043    1.029    1.177   Cg   172      3qB   0.323000
  3668   H2   -1.804    1.441    0.511   H1   172      3qB   0.000000
  3669   O2   -1.112    1.727    2.458   Oh   172      3qB  -0.713000
  3670  H2O   -1.959    1.512    2.869   Ho   172      3qB   0.420000
  3671   C3    0.356    1.245    0.557   Cg   172      3qB   0.300000
  3672   H3    1.115    0.979    1.297   H1   172      3qB   0.000000
  3673   C4    0.579    0.397   -0.720   Cg   172      3qB   0.250000
  3674   H4   -0.061    0.775   -1.520   H1   172      3qB   0.000000
  3675   C5    0.254   -1.096   -0.470   Cg   172      3qB   0.271000
  3676   H5    0.975   -1.507    0.240   H1   172      3qB   0.000000
  3677   C6    0.272   -1.958   -1.734   Cg   172      3qB   0.048000
  3678  H61    0.013   -2.994   -1.510   Hc   172      3qB   0.000000
  3679  H62    1.260   -1.968   -2.197   Hc   172      3qB   0.000000
  3680  H63   -0.437   -1.596   -2.480   Hc   172      3qB   0.000000
  3681   O5   -1.104   -1.212    0.122   Os   172      3qB  -0.535000
  3682   O4    1.964    0.514   -1.134   Oh   172      3qB  -0.713000
  3683  H4O    2.171    1.455   -1.209   Ho   172      3qB   0.421000
  3684   O3    0.516    2.650    0.220   Os   172      3qB  -0.463000
  3685   C1   -1.063   -1.475    0.223   Cg   173      3rA   0.488000
  3686   H1   -2.005   -1.882    0.591   H2   173      3rA   0.000000
  3687   O5   -1.312   -0.825   -1.086   Os   173      3rA  -0.561000
  3688   C5   -0.220   -0.012   -1.673   Cg   173      3rA   0.377000
  3689  H5A    0.613   -0.666   -1.935   H1   173      3rA   0.000000
  3690  H5E   -0.580    0.463   -2.585   H1   173      3rA   0.000000
  3691   C4    0.224    1.051   -0.655   Cg   173      3rA   0.122000
  3692   H4   -0.602    1.748   -0.506   H1   173      3rA   0.000000
  3693   O4    1.327    1.789   -1.207   Oh   173      3rA  -0.663000
  3694  H4O    2.063    1.194   -1.366   Ho   173      3rA   0.419000
  3695   C3    0.615    0.460    0.714   Cg   173      3rA   0.345000
  3696   H3    0.822    1.262    1.424   H1   173      3rA   0.000000
  3697   C2   -0.556   -0.406    1.221   Cg   173      3rA   0.253000
  3698   H2   -1.393    0.270    1.402   H1   173      3rA   0.000000
  3699   O2   -0.234   -1.006    2.488   Oh   173      3rA  -0.711000
  3700  H2O    0.504   -1.610    2.376   Ho   173      3rA   0.419000
  3701   O3    1.798   -0.357    0.574   Os   173      3rA  -0.488000
  3702   C1   -1.396   -0.774    0.897   Cg   174      3rB   0.481000
  3703   H1   -0.890   -1.173    1.776   H2   174      3rB   0.000000
  3704   C2   -1.025    0.723    0.645   Cg   174      3rB   0.385000
  3705   H2   -1.610    1.080   -0.205   H1   174      3rB   0.000000
  3706   O2   -1.344    1.593    1.773   Oh   174      3rB  -0.732000
  3707  H2O   -2.230    1.379    2.085   Ho   174      3rB   0.414000
  3708   C3    0.476    0.823    0.272   Cg   174      3rB   0.203000
  3709   H3    0.736    1.862    0.069   H1   174      3rB   0.000000
  3710   C4    0.728   -0.034   -0.993   Cg   174      3rB   0.236000
  3711   H4    0.117    0.353   -1.810   H1   174      3rB   0.000000
  3712   C5    0.338   -1.512   -0.745   Cg   174      3rB   0.335000
  3713  H5A    0.990   -1.964    0.004   H1   174      3rB   0.000000
  3714  H5E    0.440   -2.084   -1.668   H1   174      3rB   0.000000
  3715   O5   -1.073   -1.594   -0.280   Os   174      3rB  -0.576000
  3716   O4    2.120    0.065   -1.399   Oh   174      3rB  -0.695000
  3717  H4O    2.299    0.934   -1.773   Ho   174      3rB   0.411000
  3718   O3    1.324    0.324    1.351   Os   174      3rB  -0.462000
  3719   C1   -0.329   -1.723    0.946   Cg   175      3tA   0.456000
  3720   H1   -1.159   -2.234    1.437   H2   175      3tA   0.000000
  3721   O5   -0.855   -1.032   -0.259   Os   175      3tA  -0.480000
  3722   C5    0.068   -0.130   -0.999   Cg   175      3tA   0.157000
  3723   H5    0.924   -0.719   -1.335   H1   175      3tA   0.000000
  3724   C6   -0.652    0.401   -2.246   Cg   175      3tA   0.304000
  3725  H61   -1.587    0.894   -1.975   H1   175      3tA   0.000000
  3726  H62   -0.021    1.120   -2.769   H1   175      3tA   0.000000
  3727   O6   -0.932   -0.698   -3.123   Oh   175      3tA  -0.669000
  3728  H6O   -0.109   -1.125   -3.374   Ho   175      3tA   0.401000
  3729   C4    0.602    0.959   -0.043   Cg   175      3tA   0.434000
  3730   H4    1.360    1.554   -0.555   H1   175      3tA   0.000000
  3731   O4   -0.486    1.828    0.336   Oh   175      3tA  -0.731000
  3732  H4O   -0.860    2.234   -0.449   Ho   175      3tA   0.417000
  3733   C3    1.219    0.298    1.207   Cg   175      3tA   0.124000
  3734   H3    2.095   -0.257    0.869   H1   175      3tA   0.000000
  3735   C2    0.302   -0.715    1.927   Cg   175      3tA   0.245000
  3736   H2    0.868   -1.244    2.695   H1   175      3tA   0.000000
  3737   O2   -0.791   -0.033    2.570   Oh   175      3tA  -0.655000
  3738  H2O   -1.352   -0.673    3.013   Ho   175      3tA   0.436000
  3739   O3    1.698    1.296    2.126   Os   175      3tA  -0.439000
  3740   C1   -1.129   -1.155    1.120   Cg   176      3tB   0.306000
  3741   H1   -0.579   -2.098    1.112   H2   176      3tB   0.000000
  3742   C2   -0.403   -0.150    2.040   Cg   176      3tB   0.340000
  3743   H2   -0.287   -0.575    3.038   H1   176      3tB   0.000000
  3744   O2   -1.187    1.059    2.134   Oh   176      3tB  -0.637000
  3745  H2O   -2.056    0.849    2.484   Ho   176      3tB   0.397000
  3746   C3    0.983    0.171    1.439   Cg   176      3tB   0.174000
  3747   H3    1.570   -0.747    1.491   H1   176      3tB   0.000000
  3748   C4    0.964    0.605   -0.046   Cg   176      3tB   0.314000
  3749   H4    1.986    0.663   -0.423   H1   176      3tB   0.000000
  3750   C5    0.161   -0.413   -0.890   Cg   176      3tB   0.031000
  3751   H5    0.706   -1.358   -0.868   H1   176      3tB   0.000000
  3752   C6   -0.040   -0.025   -2.362   Cg   176      3tB   0.349000
  3753  H61    0.919    0.201   -2.827   H1   176      3tB   0.000000
  3754  H62   -0.683    0.852   -2.449   H1   176      3tB   0.000000
  3755   O6   -0.645   -1.127   -3.052   Oh   176      3tB  -0.666000
  3756  H6O   -1.488   -1.336   -2.644   Ho   176      3tB   0.406000
  3757   O5   -1.171   -0.632   -0.265   Os   176      3tB  -0.354000
  3758   O4    0.354    1.906   -0.177   Oh   176      3tB  -0.626000
  3759  H4O    0.352    2.167   -1.101   Ho   176      3tB   0.413000
  3760   O3    1.673    1.144    2.244   Os   176      3tB  -0.447000
  3761   C1   -1.695   -0.923    0.212   Cg   177      3uA   0.363000
  3762   H1   -1.554   -1.418   -0.749   H2   177      3uA   0.000000
  3763   O5   -0.657   -1.366    1.144   Os   177      3uA  -0.515000
  3764   C5    0.749   -0.964    0.796   Cg   177      3uA   0.232000
  3765   H5    1.385   -1.315    1.610   H1   177      3uA   0.000000
  3766   C6    1.399   -1.548   -0.534    C   177      3uA   0.697000
  3767  O6B    2.554   -1.154   -0.826   O2   177      3uA  -0.757000
  3768  O6A    0.712   -2.318   -1.242   O2   177      3uA  -0.757000
  3769   C4    0.788    0.576    0.808   Cg   177      3uA   0.223000
  3770   H4    0.525    0.919    1.811   H1   177      3uA   0.000000
  3771   O4    2.132    1.065    0.509   Oh   177      3uA  -0.711000
  3772  H4O    2.569    0.396   -0.065   Ho   177      3uA   0.397000
  3773   C3   -0.247    1.149   -0.195   Cg   177      3uA   0.417000
  3774   H3    0.064    0.881   -1.207   H1   177      3uA   0.000000
  3775   C2   -1.693    0.627    0.040   Cg   177      3uA   0.259000
  3776   H2   -2.086    1.081    0.953   H1   177      3uA   0.000000
  3777   O2   -2.562    1.005   -1.082   Oh   177      3uA  -0.685000
  3778  H2O   -2.178    0.711   -1.911   Ho   177      3uA   0.385000
  3779   O3   -0.205    2.598   -0.075   Os   177      3uA  -0.548000
  3780   C1    0.622   -1.138    1.446   Cg   178      3uB   0.278000
  3781   H1    1.362   -1.607    2.093   H2   178      3uB   0.000000
  3782   C2    0.883    0.396    1.402   Cg   178      3uB   0.289000
  3783   H2    1.922    0.536    1.098   H1   178      3uB   0.000000
  3784   O2    0.741    1.024    2.707   Oh   178      3uB  -0.680000
  3785  H2O    0.606    1.962    2.527   Ho   178      3uB   0.422000
  3786   C3   -0.012    1.100    0.359   Cg   178      3uB   0.286000
  3787   H3   -1.062    1.015    0.643   H1   178      3uB   0.000000
  3788   C4    0.212    0.460   -1.037   Cg   178      3uB   0.308000
  3789   H4    1.257    0.614   -1.313   H1   178      3uB   0.000000
  3790   C5   -0.048   -1.064   -1.025   Cg   178      3uB   0.194000
  3791   H5    0.339   -1.466   -1.963   H1   178      3uB   0.000000
  3792   C6   -1.594   -1.392   -1.042    C   178      3uB   0.750000
  3793  O6A   -2.024   -2.197   -0.184   O2   178      3uB  -0.783000
  3794  O6B   -2.306   -0.803   -1.891   O2   178      3uB  -0.783000
  3795   O5    0.774   -1.686    0.081   Os   178      3uB  -0.430000
  3796   O4   -0.601    1.137   -2.038   Oh   178      3uB  -0.745000
  3797  H4O   -1.417    0.593   -2.159   Ho   178      3uB   0.422000
  3798   O3    0.345    2.514    0.295   Os   178      3uB  -0.528000
  3799   C1   -0.206   -1.316   -0.585   Cg   179      3vA   0.389000
  3800   H1    0.051   -1.652   -1.589   H2   179      3vA   0.000000
  3801   O5    0.822   -1.808    0.343   Os   179      3vA  -0.466000
  3802   C5    0.811   -1.278    1.743   Cg   179      3vA   0.112000
  3803   H5   -0.114   -1.622    2.208   H1   179      3vA   0.000000
  3804   C6    1.962   -1.891    2.567   Cg   179      3vA   0.362000
  3805  H61    1.897   -1.546    3.599   H1   179      3vA   0.000000
  3806  H62    1.885   -2.978    2.569   H1   179      3vA   0.000000
  3807   O6    3.238   -1.514    2.030   Oh   179      3vA  -0.711000
  3808  H6O    3.115   -0.651    1.598   Ho   179      3vA   0.424000
  3809   C4    0.765    0.270    1.747   Cg   179      3vA   0.326000
  3810   H4    0.619    0.620    2.770   H1   179      3vA   0.000000
  3811   O4    2.018    0.810    1.256   Oh   179      3vA  -0.701000
  3812  H4O    1.879    1.759    1.128   Ho   179      3vA   0.442000
  3813   C3   -0.389    0.795    0.861   Cg   179      3vA   0.176000
  3814   H3   -1.330    0.457    1.298   H1   179      3vA   0.000000
  3815   C2   -0.295    0.246   -0.587   Cg   179      3vA   0.399000
  3816   H2    0.628    0.626   -1.030   H1   179      3vA   0.000000
  3817   N2   -1.429    0.732   -1.409   Ng   179      3vA  -0.595000
  3818  H2N   -2.336    0.767   -0.971    H   179      3vA   0.238000
  3819  C2N   -1.354    0.856   -2.737    C   179      3vA   0.625000
  3820  O2N   -0.310    0.654   -3.349    O   179      3vA  -0.605000
  3821  CME   -2.649    1.276   -3.458   Cg   179      3vA   0.032000
  3822  H1M   -2.884    2.314   -3.217   Hc   179      3vA   0.000000
  3823  H2M   -2.526    1.182   -4.538   Hc   179      3vA   0.000000
  3824  H3M   -3.476    0.637   -3.145   Hc   179      3vA   0.000000
  3825   O3   -0.392    2.256    0.898   Os   179      3vA  -0.447000
  3826   C1   -0.834   -1.143    0.619   Cg   180      3vB   0.305000
  3827   H1   -0.214   -1.521    1.433   H2   180      3vB   0.000000
  3828   C2   -0.547    0.383    0.406   Cg   180      3vB   0.544000
  3829   H2   -1.230    0.751   -0.362   H1   180      3vB   0.000000
  3830   N2   -0.753    1.144    1.660   Ng   180      3vB  -0.686000
  3831  H2N   -0.363    0.772    2.508    H   180      3vB   0.254000
  3832  C2N   -1.460    2.276    1.710    C   180      3vB   0.586000
  3833  CME   -1.572    2.951    3.094   Cg   180      3vB   0.056000
  3834  H1M   -0.697    3.580    3.262   Hc   180      3vB   0.000000
  3835  H2M   -2.469    3.571    3.135   Hc   180      3vB   0.000000
  3836  H3M   -1.631    2.200    3.884   Hc   180      3vB   0.000000
  3837  O2N   -1.986    2.768    0.717    O   180      3vB  -0.564000
  3838   C3    0.915    0.553   -0.104   Cg   180      3vB   0.152000
  3839   H3    1.591    0.192    0.674   H1   180      3vB   0.000000
  3840   C4    1.166   -0.278   -1.381   Cg   180      3vB   0.253000
  3841   H4    2.211   -0.176   -1.677   H1   180      3vB   0.000000
  3842   C5    0.847   -1.771   -1.148   Cg   180      3vB   0.136000
  3843   H5    1.554   -2.148   -0.406   H1   180      3vB   0.000000
  3844   C6    0.994   -2.620   -2.423   Cg   180      3vB   0.353000
  3845  H61    1.979   -2.470   -2.867   H1   180      3vB   0.000000
  3846  H62    0.237   -2.350   -3.160   H1   180      3vB   0.000000
  3847   O6    0.845   -4.006   -2.079   Oh   180      3vB  -0.714000
  3848  H6O   -0.022   -4.116   -1.677   Ho   180      3vB   0.427000
  3849   O5   -0.532   -1.925   -0.592   Os   180      3vB  -0.408000
  3850   O4    0.336    0.236   -2.446   Oh   180      3vB  -0.690000
  3851  H4O    0.361    1.203   -2.404   Ho   180      3vB   0.440000
  3852   O3    1.274    1.945   -0.374   Os   180      3vB  -0.444000
  3853   C1   -1.212   -1.300   -0.789   Cg   181      3wA   0.462100
  3854   H1   -0.983   -1.689   -1.781   H2   181      3wA   0.000000
  3855   O5   -0.200   -1.795    0.155   Os   181      3wA  -0.541500
  3856   C5   -0.237   -1.276    1.556   Cg   181      3wA   0.242100
  3857   H5   -1.141   -1.678    2.018   H1   181      3wA   0.000000
  3858   C6    0.964   -1.830    2.355   Cg   181      3wA   0.299500
  3859  H61    0.814   -1.654    3.420   H1   181      3wA   0.000000
  3860  H62    1.037   -2.907    2.203   H1   181      3wA   0.000000
  3861   O6    2.208   -1.216    1.958   Oh   181      3wA  -0.661800
  3862  H6O    2.315   -0.376    2.412   Ho   181      3wA   0.395900
  3863   C4   -0.337    0.268    1.581   Cg   181      3wA   0.321300
  3864   H4    0.627    0.695    1.303   H1   181      3wA   0.000000
  3865   O4   -0.653    0.692    2.940   Oh   181      3wA  -0.730500
  3866  H4O   -1.545    0.421    3.188   Ho   181      3wA   0.442400
  3867   C3   -1.412    0.813    0.607   Cg   181      3wA   0.252000
  3868   H3   -2.395    0.520    0.977   H1   181      3wA   0.000000
  3869   C2   -1.246    0.253   -0.828   Cg   181      3wA   0.275000
  3870   H2   -2.110    0.559   -1.421   H1   181      3wA   0.000000
  3871   N2   -0.041    0.799   -1.496   Ng   181      3wA  -0.475100
  3872  H2N    0.628    1.286   -0.924    H   181      3wA   0.214200
  3873  C2N    0.161    0.753   -2.816    C   181      3wA   0.590900
  3874  O2N   -0.621    0.194   -3.581    O   181      3wA  -0.575700
  3875  CME    1.451    1.428   -3.316   Cg   181      3wA  -0.034000
  3876  H1M    1.444    2.486   -3.049   Hc   181      3wA   0.000000
  3877  H2M    1.527    1.340   -4.401   Hc   181      3wA   0.000000
  3878  H3M    2.319    0.948   -2.863   Hc   181      3wA   0.000000
  3879   O3   -1.360    2.267    0.591   Os   181      3wA  -0.476800
  3880   C1   -0.626   -0.985    1.630   Cg   182      3wB   0.387000
  3881   H1    0.020   -1.325    2.441   H2   182      3wB   0.000000
  3882   C2   -0.364    0.519    1.324   Cg   182      3wB   0.294000
  3883   H2   -0.474    1.074    2.258   H1   182      3wB   0.000000
  3884   N2   -1.323    1.076    0.336   Ng   182      3wB  -0.558000
  3885  H2N   -1.694    0.445   -0.356    H   182      3wB   0.265000
  3886  C2N   -1.742    2.345    0.348    C   182      3wB   0.585000
  3887  CME   -2.794    2.739   -0.712   Cg   182      3wB   0.056000
  3888  H1M   -2.311    3.324   -1.495   Hc   182      3wB   0.000000
  3889  H2M   -3.579    3.339   -0.250   Hc   182      3wB   0.000000
  3890  H3M   -3.251    1.856   -1.162   Hc   182      3wB   0.000000
  3891  O2N   -1.285    3.162    1.144    O   182      3wB  -0.600000
  3892   C3    1.104    0.670    0.850   Cg   182      3wB   0.217000
  3893   H3    1.754    0.397    1.683   H1   182      3wB   0.000000
  3894   C4    1.423   -0.253   -0.355   Cg   182      3wB   0.277000
  3895   H4    0.874    0.097   -1.232   H1   182      3wB   0.000000
  3896   C5    1.041   -1.726   -0.066   Cg   182      3wB   0.321000
  3897   H5    1.701   -2.116    0.712   H1   182      3wB   0.000000
  3898   C6    1.168   -2.625   -1.312   Cg   182      3wB   0.247000
  3899  H61    2.194   -2.623   -1.681   H1   182      3wB   0.000000
  3900  H62    0.518   -2.257   -2.108   H1   182      3wB   0.000000
  3901   O6    0.792   -3.981   -0.994   Oh   182      3wB  -0.663000
  3902  H6O   -0.101   -3.981   -0.635   Ho   182      3wB   0.413000
  3903   O5   -0.367   -1.798    0.441   Os   182      3wB  -0.498000
  3904   O4    2.840   -0.182   -0.637   Oh   182      3wB  -0.743000
  3905  H4O    3.084    0.755   -0.667   Ho   182      3wB   0.439000
  3906   O3    1.399    2.053    0.493   Os   182      3wB  -0.439000
  3907   C1   -0.331   -1.178   -1.378   Cg   183      3xA   0.482000
  3908   H1   -0.116   -1.496   -2.398   H2   183      3xA   0.000000
  3909   O5    0.676   -1.750   -0.484   Os   183      3xA  -0.588000
  3910   C5    0.654   -1.308    0.938   Cg   183      3xA   0.335000
  3911  H5A   -0.249   -1.694    1.414   H1   183      3xA   0.000000
  3912  H5E    1.513   -1.737    1.454   H1   183      3xA   0.000000
  3913   C4    0.692    0.227    1.040   Cg   183      3xA   0.247000
  3914   H4    1.670    0.580    0.710   H1   183      3xA   0.000000
  3915   O4    0.503    0.604    2.430   Oh   183      3xA  -0.720000
  3916  H4O    0.466    1.569    2.475   Ho   183      3xA   0.420000
  3917   C3   -0.412    0.859    0.160   Cg   183      3xA   0.359000
  3918   H3   -1.394    0.622    0.574   H1   183      3xA   0.000000
  3919   C2   -0.342    0.372   -1.303   Cg   183      3xA   0.197000
  3920   H2    0.589    0.732   -1.743   H1   183      3xA   0.000000
  3921   O2   -1.449    0.928   -2.083   Oh   183      3xA  -0.656000
  3922  H2O   -2.230    0.368   -1.971   Ho   183      3xA   0.409000
  3923   O3   -0.240    2.300    0.164   Os   183      3xA  -0.485000
  3924   C1   -1.261   -0.903    0.990   Cg   184      3xB   0.248000
  3925   H1   -0.618   -1.294    1.779   H2   184      3xB   0.000000
  3926   C2   -1.007    0.618    0.775   Cg   184      3xB   0.425000
  3927   H2   -1.775    1.023    0.113   H1   184      3xB   0.000000
  3928   O2   -1.083    1.298    2.055   Oh   184      3xB  -0.699000
  3929  H2O   -1.901    1.010    2.478   Ho   184      3xB   0.398000
  3930   C3    0.391    0.868    0.161   Cg   184      3xB   0.228000
  3931   H3    1.154    0.623    0.903   H1   184      3xB   0.000000
  3932   C4    0.616    0.002   -1.099   Cg   184      3xB   0.286000
  3933   H4   -0.045    0.338   -1.899   H1   184      3xB   0.000000
  3934   C5    0.347   -1.489   -0.817   Cg   184      3xB   0.303000
  3935  H5A    1.083   -1.885   -0.114   H1   184      3xB   0.000000
  3936  H5E    0.416   -2.065   -1.740   H1   184      3xB   0.000000
  3937   O5   -1.009   -1.654   -0.244   Os   184      3xB  -0.447000
  3938   O4    1.988    0.145   -1.536   Oh   184      3xB  -0.723000
  3939  H4O    2.172    1.091   -1.605   Ho   184      3xB   0.430000
  3940   O3    0.532    2.274   -0.200   Os   184      3xB  -0.449000
  3941   C1   -0.290   -1.498   -0.799   Cg   185      3yA   0.468000
  3942   H1   -0.031   -1.892   -1.782   H2   185      3yA   0.000000
  3943   O5    0.628   -2.075    0.183   Os   185      3yA  -0.568000
  3944   C5    0.626   -1.506    1.571   Cg   185      3yA   0.246000
  3945   H5   -0.331   -1.772    2.025   H1   185      3yA   0.000000
  3946   C6    1.735   -2.168    2.416   Cg   185      3yA   0.328000
  3947  H61    1.621   -3.252    2.384   H1   185      3yA   0.000000
  3948  H62    1.649   -1.856    3.457   H1   185      3yA   0.000000
  3949   O6    3.052   -1.825    1.933   Oh   185      3yA  -0.688000
  3950  H6O    3.715   -2.258    2.476   Ho   185      3yA   0.421000
  3951   C4    0.732    0.034    1.545   Cg   185      3yA   0.322000
  3952   H4    1.742    0.330    1.258   H1   185      3yA   0.000000
  3953   O4    0.455    0.539    2.874   Oh   185      3yA  -0.733000
  3954  H4O    0.387    1.500    2.786   Ho   185      3yA   0.449000
  3955   C3   -0.278    0.682    0.570   Cg   185      3yA   0.165000
  3956   H3   -1.289    0.553    0.961   H1   185      3yA   0.000000
  3957   C2   -0.209    0.057   -0.843   Cg   185      3yA   0.245000
  3958   H2    0.763    0.311   -1.271   H1   185      3yA   0.000000
  3959   N2   -1.252    0.625   -1.736   Ng   185      3yA  -0.552000
  3960  H2N   -2.113    0.102   -1.798    H   185      3yA   0.236000
  3961  C2N   -1.145    1.788   -2.388    C   185      3yA   0.588000
  3962  O2N   -0.181    2.530   -2.220    O   185      3yA  -0.579000
  3963  CME   -2.294    2.164   -3.350   Cg   185      3yA   0.063000
  3964  H1M   -2.763    3.087   -3.009   Hc   185      3yA   0.000000
  3965  H2M   -1.892    2.318   -4.352   Hc   185      3yA   0.000000
  3966  H3M   -3.050    1.377   -3.392   Hc   185      3yA   0.000000
  3967   O3    0.012    2.108    0.499   Os   185      3yA  -0.411000
  3968   C1   -0.924   -1.057    0.592   Cg   186      3yB   0.287000
  3969   H1   -0.308   -1.457    1.399   H2   186      3yB   0.000000
  3970   C2   -0.588    0.455    0.362   Cg   186      3yB   0.480000
  3971   H2   -1.270    0.832   -0.403   H1   186      3yB   0.000000
  3972   N2   -0.762    1.237    1.611   Ng   186      3yB  -0.722000
  3973  H2N   -0.409    0.838    2.464    H   186      3yB   0.300000
  3974  C2N   -1.531    2.327    1.690    C   186      3yB   0.648000
  3975  CME   -1.687    2.958    3.088   Cg   186      3yB   0.034000
  3976  H1M   -0.829    3.599    3.293   Hc   186      3yB   0.000000
  3977  H2M   -2.596    3.560    3.128   Hc   186      3yB   0.000000
  3978  H3M   -1.748    2.183    3.855   Hc   186      3yB   0.000000
  3979  O2N   -2.055    2.828    0.701    O   186      3yB  -0.576000
  3980   C3    0.864    0.589   -0.178   Cg   186      3yB   0.180000
  3981   H3    1.557    0.266    0.601   H1   186      3yB   0.000000
  3982   C4    1.069   -0.298   -1.429   Cg   186      3yB   0.302000
  3983   H4    0.447    0.074   -2.246   H1   186      3yB   0.000000
  3984   C5    0.723   -1.773   -1.147   Cg   186      3yB   0.208000
  3985   H5    1.398   -2.158   -0.380   H1   186      3yB   0.000000
  3986   C6    0.846   -2.660   -2.400   Cg   186      3yB   0.289000
  3987  H61    1.868   -2.645   -2.780   H1   186      3yB   0.000000
  3988  H62    0.182   -2.297   -3.187   H1   186      3yB   0.000000
  3989   O6    0.492   -4.015   -2.073   Oh   186      3yB  -0.689000
  3990  H6O   -0.385   -4.013   -1.679   Ho   186      3yB   0.424000
  3991   O5   -0.673   -1.845   -0.621   Os   186      3yB  -0.433000
  3992   O4    2.456   -0.217   -1.825   Oh   186      3yB  -0.716000
  3993  H4O    2.669    0.722   -1.905   Ho   186      3yB   0.436000
  3994   O3    1.196    1.968   -0.532   Os   186      3yB  -0.452000
  3995   C1   -0.741   -0.715    1.681   Cg   187      3zA   0.398000
  3996   H1   -1.599   -0.913    2.324   H2   187      3zA   0.000000
  3997   O5   -0.999   -1.292    0.367   Os   187      3zA  -0.544000
  3998   C5    0.004   -1.030   -0.738   Cg   187      3zA   0.187000
  3999   H5    0.938   -1.486   -0.404   H1   187      3zA   0.000000
  4000   C6   -0.266   -1.702   -2.161    C   187      3zA   0.798000
  4001  O6B   -1.092   -2.641   -2.230   O2   187      3zA  -0.787000
  4002  O6A    0.411   -1.290   -3.139   O2   187      3zA  -0.787000
  4003   C4    0.273    0.491   -0.866   Cg   187      3zA   0.193000
  4004   H4   -0.591    0.956   -1.343   H1   187      3zA   0.000000
  4005   O4    1.428    0.657   -1.729   Oh   187      3zA  -0.682000
  4006  H4O    1.265    0.084   -2.510   Ho   187      3zA   0.422000
  4007   C3    0.537    1.183    0.502   Cg   187      3zA   0.300000
  4008   H3    1.525    0.890    0.863   H1   187      3zA   0.000000
  4009   C2   -0.513    0.816    1.577   Cg   187      3zA   0.326000
  4010   H2   -1.464    1.271    1.298   H1   187      3zA   0.000000
  4011   O2   -0.122    1.358    2.882   Oh   187      3zA  -0.732000
  4012  H2O    0.494    0.729    3.278   Ho   187      3zA   0.406000
  4013   O3    0.510    2.633    0.350   Os   187      3zA  -0.498000
  4014   C1   -1.433   -0.506    1.230   Cg   188      3zB   0.251000
  4015   H1   -0.837   -0.916    2.047   H2   188      3zB   0.000000
  4016   C2   -1.154    1.015    1.053   Cg   188      3zB   0.411000
  4017   H2   -1.889    1.435    0.364   H1   188      3zB   0.000000
  4018   O2   -1.322    1.640    2.359   Oh   188      3zB  -0.740000
  4019  H2O   -2.179    1.348    2.686   Ho   188      3zB   0.422000
  4020   C3    0.271    1.266    0.495   Cg   188      3zB   0.266000
  4021   H3    0.999    1.047    1.279   H1   188      3zB   0.000000
  4022   C4    0.585    0.378   -0.739   Cg   188      3zB   0.267000
  4023   H4   -0.009    0.720   -1.589   H1   188      3zB   0.000000
  4024   C5    0.282   -1.116   -0.508   Cg   188      3zB   0.075000
  4025   H5    0.940   -1.475    0.286   H1   188      3zB   0.000000
  4026   C6    0.654   -1.977   -1.784    C   188      3zB   0.893000
  4027  O6A   -0.115   -2.909   -2.115   O2   188      3zB  -0.818000
  4028  O6B    1.723   -1.692   -2.382   O2   188      3zB  -0.818000
  4029   O5   -1.125   -1.237    0.005   Os   188      3zB  -0.413000
  4030   O4    1.988    0.527   -1.070   Oh   188      3zB  -0.733000
  4031  H4O    2.185   -0.207   -1.701   Ho   188      3zB   0.429000
  4032   O3    0.435    2.657    0.085   Os   188      3zB  -0.492000
  4033   C1   -0.947   -1.523    0.123   Cg   189      4aA   0.448000
  4034   H1   -1.866   -1.914    0.562   H2   189      4aA   0.000000
  4035   O5   -1.290   -0.856   -1.157   Os   189      4aA  -0.564000
  4036   C5   -0.240   -0.055   -1.822   Cg   189      4aA   0.379000
  4037  H5A    0.577   -0.710   -2.128   H1   189      4aA   0.000000
  4038  H5E   -0.658    0.411   -2.715   H1   189      4aA   0.000000
  4039   C4    0.252    1.014   -0.841   Cg   189      4aA   0.245000
  4040   H4   -0.575    1.694   -0.631   H1   189      4aA   0.000000
  4041   C3    0.749    0.422    0.494   Cg   189      4aA   0.335000
  4042   H3    0.987    1.226    1.191   H1   189      4aA   0.000000
  4043   O3    1.946   -0.351    0.275   Oh   189      4aA  -0.772000
  4044  H3O    2.254   -0.707    1.112   Ho   189      4aA   0.461000
  4045   C2   -0.294   -0.531    1.114   Cg   189      4aA   0.268000
  4046   H2    0.150   -1.076    1.949   H1   189      4aA   0.000000
  4047   O2   -1.352    0.283    1.647   Oh   189      4aA  -0.735000
  4048  H2O   -0.991    0.895    2.293   Ho   189      4aA   0.443000
  4049   O4    1.298    1.777   -1.466   Os   189      4aA  -0.508000
  4050   C1   -1.350   -0.771    0.839   Cg   190      4aB   0.379000
  4051   H1   -0.814   -1.177    1.699   H2   190      4aB   0.000000
  4052   C2   -1.015    0.746    0.664   Cg   190      4aB   0.300000
  4053   H2   -1.197    1.269    1.604   H1   190      4aB   0.000000
  4054   O2   -1.838    1.364   -0.371   Oh   190      4aB  -0.700000
  4055  H2O   -2.750    1.090   -0.212   Ho   190      4aB   0.418000
  4056   C3    0.465    0.899    0.253   Cg   190      4aB   0.297000
  4057   H3    0.674    1.947    0.031   H1   190      4aB   0.000000
  4058   O3    1.308    0.499    1.368   Oh   190      4aB  -0.668000
  4059  H3O    2.216    0.442    1.042   Ho   190      4aB   0.407000
  4060   C4    0.801    0.035   -0.990   Cg   190      4aB   0.224000
  4061   H4    0.226    0.402   -1.842   H1   190      4aB   0.000000
  4062   C5    0.426   -1.446   -0.756   Cg   190      4aB   0.356000
  4063  H5A    1.056   -1.883    0.020   H1   190      4aB   0.000000
  4064  H5E    0.575   -2.017   -1.673   H1   190      4aB   0.000000
  4065   O5   -0.998   -1.555   -0.348   Os   190      4aB  -0.529000
  4066   O4    2.215    0.155   -1.326   Os   190      4aB  -0.484000
  4067   C2   -0.491   -0.955    0.727   Cg   191      4bA   0.130000
  4068   C1   -1.877   -1.344    1.327   Cg   191      4bA   0.428000
  4069  H11   -2.076   -2.400    1.143   H1   191      4bA   0.000000
  4070  H12   -1.874   -1.192    2.408   H1   191      4bA   0.000000
  4071   O1   -2.950   -0.561    0.763   Oh   191      4bA  -0.678000
  4072  H1O   -2.884    0.324    1.131   Ho   191      4bA   0.399000
  4073   O6   -0.346   -1.495   -0.647   Os   191      4bA  -0.507000
  4074   C6    0.910   -1.169   -1.381   Cg   191      4bA   0.341000
  4075  H6A    1.740   -1.700   -0.914   H1   191      4bA   0.000000
  4076  H6E    0.821   -1.524   -2.408   H1   191      4bA   0.000000
  4077   C5    1.181    0.351   -1.371   Cg   191      4bA   0.224000
  4078   H5    0.438    0.837   -2.005   H1   191      4bA   0.000000
  4079   O5    2.498    0.589   -1.941   Oh   191      4bA  -0.690000
  4080  H5O    2.556    1.502   -2.239   Ho   191      4bA   0.429000
  4081   C4    1.097    0.938    0.062   Cg   191      4bA   0.335000
  4082   H4    1.899    0.532    0.683   H1   191      4bA   0.000000
  4083   C3   -0.278    0.588    0.681   Cg   191      4bA   0.372000
  4084   H3   -1.045    1.024    0.038   H1   191      4bA   0.000000
  4085   O3   -0.445    1.180    2.001   Oh   191      4bA  -0.716000
  4086  H3O   -0.123    2.087    1.946   Ho   191      4bA   0.430000
  4087   O4    1.251    2.389   -0.003   Os   191      4bA  -0.497000
  4088   C2   -1.268   -0.501    0.403   Cg   192      4bB   0.227000
  4089   C1   -0.545   -1.117    1.645   Cg   192      4bB   0.281000
  4090  H11    0.524   -0.911    1.596   H1   192      4bB   0.000000
  4091  H12   -0.927   -0.671    2.564   H1   192      4bB   0.000000
  4092   O1   -0.729   -2.547    1.716   Oh   192      4bB  -0.626000
  4093  H1O   -0.277   -2.889    2.491   Ho   192      4bB   0.395000
  4094   C3   -0.968    1.020    0.199   Cg   192      4bB   0.464000
  4095   H3   -1.668    1.418   -0.538   H1   192      4bB   0.000000
  4096   O3   -1.162    1.745    1.443   Oh   192      4bB  -0.730000
  4097  H3O   -2.068    1.569    1.722   Ho   192      4bB   0.432000
  4098   C4    0.474    1.280   -0.307   Cg   192      4bB   0.108000
  4099   H4    1.181    1.020    0.484   H1   192      4bB   0.000000
  4100   C5    0.775    0.426   -1.559   Cg   192      4bB   0.340000
  4101   H5    0.186    0.794   -2.401   H1   192      4bB   0.000000
  4102   C6    0.467   -1.070   -1.347   Cg   192      4bB   0.311000
  4103  H6A    1.163   -1.507   -0.629   H1   192      4bB   0.000000
  4104  H6E    0.567   -1.612   -2.288   H1   192      4bB   0.000000
  4105   O6   -0.920   -1.230   -0.840   Os   192      4bB  -0.477000
  4106   O5    2.178    0.573   -1.871   Oh   192      4bB  -0.720000
  4107  H5O    2.363    1.520   -1.848   Ho   192      4bB   0.429000
  4108   O4    0.653    2.691   -0.636   Os   192      4bB  -0.434000
  4109   C2   -0.474   -0.915    0.898   Cg   193      4cA   0.345000
  4110   C1   -1.935   -1.252    1.353   Cg   193      4cA   0.386000
  4111  H11   -2.075   -2.333    1.397   H1   193      4cA   0.000000
  4112  H12   -2.104   -0.855    2.355   H1   193      4cA   0.000000
  4113   O1   -2.939   -0.700    0.470   Oh   193      4cA  -0.696000
  4114  H1O   -2.627    0.179    0.212   Ho   193      4cA   0.402000
  4115   O6   -0.203   -1.501   -0.438   Os   193      4cA  -0.620000
  4116   C6    1.062   -1.145   -1.125   Cg   193      4cA   0.437000
  4117  H6A    1.906   -1.567   -0.577   H1   193      4cA   0.000000
  4118  H6E    1.055   -1.585   -2.122   H1   193      4cA   0.000000
  4119   C5    1.182    0.385   -1.228   Cg   193      4cA   0.195000
  4120   H5    0.329    0.766   -1.791   H1   193      4cA   0.000000
  4121   O5    2.395    0.780   -1.942   Oh   193      4cA  -0.709000
  4122  H5O    2.255    0.751   -2.895   Ho   193      4cA   0.415000
  4123   C4    1.153    1.002    0.187   Cg   193      4cA   0.367000
  4124   H4    1.195    2.088    0.091   H1   193      4cA   0.000000
  4125   C3   -0.130    0.620    0.971   Cg   193      4cA   0.247000
  4126   H3   -0.002    0.900    2.019   H1   193      4cA   0.000000
  4127   O3   -1.225    1.443    0.448   Oh   193      4cA  -0.655000
  4128  H3O   -1.146    2.343    0.786   Ho   193      4cA   0.406000
  4129   O4    2.330    0.597    0.931   Os   193      4cA  -0.520000
  4130   C2   -1.237   -0.402    0.499   Cg   194      4cB   0.244000
  4131   C1   -0.551   -1.063    1.738   Cg   194      4cB   0.297000
  4132  H11    0.532   -0.991    1.665   H1   194      4cB   0.000000
  4133  H12   -0.857   -0.552    2.652   H1   194      4cB   0.000000
  4134   O1   -0.891   -2.465    1.854   Oh   194      4cB  -0.669000
  4135  H1O   -0.436   -2.843    2.611   Ho   194      4cB   0.401000
  4136   C3   -0.891    1.121    0.350   Cg   194      4cB   0.317000
  4137   H3   -0.972    1.607    1.323   H1   194      4cB   0.000000
  4138   O3   -1.841    1.766   -0.542   Oh   194      4cB  -0.697000
  4139  H3O   -2.671    1.280   -0.437   Ho   194      4cB   0.407000
  4140   C4    0.521    1.371   -0.243   Cg   194      4cB   0.344000
  4141   H4    0.619    2.424   -0.512   H1   194      4cB   0.000000
  4142   C5    0.781    0.511   -1.505   Cg   194      4cB   0.195000
  4143   H5    0.116    0.858   -2.298   H1   194      4cB   0.000000
  4144   C6    0.483   -0.979   -1.260   Cg   194      4cB   0.365000
  4145  H6A    1.188   -1.399   -0.541   H1   194      4cB   0.000000
  4146  H6E    0.577   -1.537   -2.191   H1   194      4cB   0.000000
  4147   O6   -0.898   -1.128   -0.746   Os   194      4cB  -0.460000
  4148   O5    2.149    0.683   -1.974   Oh   194      4cB  -0.684000
  4149  H5O    2.748    0.652   -1.217   Ho   194      4cB   0.415000
  4150   O4    1.532    1.087    0.770   Os   194      4cB  -0.475000
  4151   C1   -0.471   -1.283   -1.137   Cg   195      4dA   0.398000
  4152   H1   -0.228   -1.622   -2.144   H2   195      4dA   0.000000
  4153   O5    0.487   -1.887   -0.201   Os   195      4dA  -0.487000
  4154   C5    0.505   -1.371    1.196   Cg   195      4dA   0.275000
  4155  H5A   -0.403   -1.709    1.702   H1   195      4dA   0.000000
  4156  H5E    1.357   -1.801    1.722   H1   195      4dA   0.000000
  4157   C4    0.583    0.170    1.234   Cg   195      4dA   0.351000
  4158   H4    1.561    0.500    0.882   H1   195      4dA   0.000000
  4159   C3   -0.535    0.783    0.362   Cg   195      4dA   0.184000
  4160   H3   -1.501    0.470    0.763   H1   195      4dA   0.000000
  4161   O3   -0.500    2.240    0.422   Oh   195      4dA  -0.655000
  4162  H3O   -1.089    2.613   -0.241   Ho   195      4dA   0.417000
  4163   C2   -0.442    0.275   -1.099   Cg   195      4dA   0.246000
  4164   H2   -1.284    0.668   -1.670   H1   195      4dA   0.000000
  4165   O2    0.786    0.755   -1.722   Oh   195      4dA  -0.678000
  4166  H2O    0.772    0.594   -2.670   Ho   195      4dA   0.432000
  4167   O4    0.403    0.604    2.603   Os   195      4dA  -0.483000
  4168   C1    1.285   -1.084    0.763   Cg   196      4dB   0.448000
  4169   H1    1.611   -1.631   -0.123   H2   196      4dB   0.000000
  4170   C2    1.231    0.425    0.447   Cg   196      4dB   0.226000
  4171   H2    2.214    0.781    0.134   H1   196      4dB   0.000000
  4172   O2    0.827    1.136    1.640   Oh   196      4dB  -0.645000
  4173  H2O    1.458    0.965    2.343   Ho   196      4dB   0.415000
  4174   C3    0.196    0.671   -0.671   Cg   196      4dB   0.201000
  4175   H3    0.565    0.198   -1.583   H1   196      4dB   0.000000
  4176   O3    0.086    2.085   -0.916   Oh   196      4dB  -0.701000
  4177  H3O   -0.532    2.238   -1.634   Ho   196      4dB   0.432000
  4178   C4   -1.191    0.090   -0.327   Cg   196      4dB   0.335000
  4179   H4   -1.657    0.668    0.472   H1   196      4dB   0.000000
  4180   C5   -1.103   -1.388    0.094   Cg   196      4dB   0.275000
  4181  H5A   -0.845   -2.016   -0.762   H1   196      4dB   0.000000
  4182  H5E   -2.063   -1.726    0.485   H1   196      4dB   0.000000
  4183   O5   -0.067   -1.559    1.137   Os   196      4dB  -0.519000
  4184   O4   -2.019    0.146   -1.499   Os   196      4dB  -0.467000
  4185   C1   -0.344   -1.634    0.851   Cg   197      4eA   0.480000
  4186   H1   -1.125   -2.200    1.360   H2   197      4eA   0.000000
  4187   O5   -0.937   -1.004   -0.352   Os   197      4eA  -0.587000
  4188   C5   -0.131   -0.005   -1.100   Cg   197      4eA   0.374000
  4189   H5    0.767   -0.493   -1.483   H1   197      4eA   0.000000
  4190   C6   -0.977    0.488   -2.282   Cg   197      4eA   0.259000
  4191  H61   -1.932    0.884   -1.935   H1   197      4eA   0.000000
  4192  H62   -0.454    1.275   -2.825   H1   197      4eA   0.000000
  4193   O6   -1.212   -0.610   -3.175   Oh   197      4eA  -0.663000
  4194  H6O   -0.373   -0.950   -3.491   Ho   197      4eA   0.406000
  4195   C4    0.275    1.107   -0.113   Cg   197      4eA   0.261000
  4196   H4   -0.627    1.624    0.215   H1   197      4eA   0.000000
  4197   C3    1.006    0.571    1.137   Cg   197      4eA   0.328000
  4198   H3    1.175    1.384    1.844   H1   197      4eA   0.000000
  4199   O3    2.289    0.028    0.764   Oh   197      4eA  -0.714000
  4200  H3O    2.738   -0.298    1.547   Ho   197      4eA   0.420000
  4201   C2    0.220   -0.567    1.816   Cg   197      4eA   0.179000
  4202   H2    0.838   -1.044    2.579   H1   197      4eA   0.000000
  4203   O2   -0.905    0.028    2.483   Oh   197      4eA  -0.690000
  4204  H2O   -1.404   -0.653    2.939   Ho   197      4eA   0.447000
  4205   O4    1.114    2.069   -0.778   Os   197      4eA  -0.500000
  4206   C1   -1.392   -0.233    1.284   Cg   198      4eB   0.488000
  4207   H1   -0.837   -0.633    2.132   H2   198      4eB   0.000000
  4208   C2   -1.081    1.283    1.089   Cg   198      4eB   0.184000
  4209   H2   -1.268    1.815    2.022   H1   198      4eB   0.000000
  4210   O2   -1.899    1.894    0.042   Oh   198      4eB  -0.697000
  4211  H2O   -2.829    1.734    0.251   Ho   198      4eB   0.432000
  4212   C3    0.397    1.440    0.684   Cg   198      4eB   0.315000
  4213   H3    0.608    2.491    0.481   H1   198      4eB   0.000000
  4214   O3    1.222    1.024    1.807   Oh   198      4eB  -0.681000
  4215  H3O    2.142    1.003    1.517   Ho   198      4eB   0.403000
  4216   C4    0.728    0.598   -0.579   Cg   198      4eB   0.320000
  4217   H4    0.145    0.982   -1.418   H1   198      4eB   0.000000
  4218   C5    0.367   -0.893   -0.369   Cg   198      4eB   0.257000
  4219   H5    1.009   -1.310    0.410   H1   198      4eB   0.000000
  4220   C6    0.558   -1.721   -1.655   Cg   198      4eB   0.278000
  4221  H61    1.596   -1.682   -1.985   H1   198      4eB   0.000000
  4222  H62   -0.071   -1.325   -2.453   H1   198      4eB   0.000000
  4223   O6    0.198   -3.093   -1.414   Oh   198      4eB  -0.677000
  4224  H6O   -0.673   -3.106   -1.006   Ho   198      4eB   0.408000
  4225   O5   -1.059   -1.010    0.084   Os   198      4eB  -0.532000
  4226   O4    2.137    0.741   -0.920   Os   198      4eB  -0.498000
  4227   C1   -0.488   -1.107   -1.474   Cg   199      4fA   0.399000
  4228   H1   -0.164   -1.513   -2.432   H2   199      4fA   0.000000
  4229   O5    0.417   -1.606   -0.426   Os   199      4fA  -0.494000
  4230   C5    0.250   -1.028    0.943   Cg   199      4fA   0.187000
  4231   H5   -0.717   -1.359    1.326   H1   199      4fA   0.000000
  4232   C6    1.324   -1.639    1.846   Cg   199      4fA   0.065000
  4233  H61    2.331   -1.411    1.496   Hc   199      4fA   0.000000
  4234  H62    1.232   -2.726    1.887   Hc   199      4fA   0.000000
  4235  H63    1.239   -1.269    2.868   Hc   199      4fA   0.000000
  4236   C4    0.221    0.525    0.909   Cg   199      4fA   0.263000
  4237   H4   -0.076    0.892    1.893   H1   199      4fA   0.000000
  4238   C3   -0.782    1.051   -0.148   Cg   199      4fA   0.228000
  4239   H3   -1.786    0.738    0.142   H1   199      4fA   0.000000
  4240   O3   -0.759    2.514   -0.149   Oh   199      4fA  -0.693000
  4241  H3O   -1.582    2.836   -0.537   Ho   199      4fA   0.426000
  4242   C2   -0.443    0.457   -1.539   Cg   199      4fA   0.456000
  4243   H2    0.573    0.748   -1.812   H1   199      4fA   0.000000
  4244   O2   -1.329    0.993   -2.572   Oh   199      4fA  -0.804000
  4245  H2O   -1.003    1.857   -2.837   Ho   199      4fA   0.453000
  4246   O4    1.543    1.049    0.615   Os   199      4fA  -0.486000
  4247   C1   -1.159   -1.291    0.657   Cg   200      4fB   0.418000
  4248   H1   -0.563   -2.202    0.577   H2   200      4fB   0.000000
  4249   C2   -0.477   -0.287    1.612   Cg   200      4fB   0.346000
  4250   H2   -1.178    0.504    1.887   H1   200      4fB   0.000000
  4251   O2   -0.084   -1.008    2.794   Oh   200      4fB  -0.765000
  4252  H2O   -0.860   -1.400    3.201   Ho   200      4fB   0.440000
  4253   C3    0.793    0.328    0.990   Cg   200      4fB   0.255000
  4254   H3    1.563   -0.443    0.918   H1   200      4fB   0.000000
  4255   O3    1.295    1.376    1.841   Oh   200      4fB  -0.676000
  4256  H3O    1.467    1.021    2.717   Ho   200      4fB   0.427000
  4257   C4    0.555    0.892   -0.425   Cg   200      4fB   0.229000
  4258   H4    1.498    1.239   -0.851   H1   200      4fB   0.000000
  4259   C5   -0.055   -0.204   -1.324   Cg   200      4fB   0.106000
  4260   H5    0.655   -1.032   -1.383   H1   200      4fB   0.000000
  4261   C6   -0.384    0.221   -2.757   Cg   200      4fB   0.092000
  4262  H61   -0.763   -0.620   -3.340   Hc   200      4fB   0.000000
  4263  H62   -1.141    1.006   -2.789   Hc   200      4fB   0.000000
  4264  H63    0.502    0.597   -3.271   Hc   200      4fB   0.000000
  4265   O5   -1.299   -0.702   -0.693   Os   200      4fB  -0.442000
  4266   O4   -0.366    2.003   -0.360   Os   200      4fB  -0.430000
  4267   C1   -0.716   -0.540    1.689   Cg   201      4gA   0.509000
  4268   H1   -1.593   -0.700    2.317   H2   201      4gA   0.000000
  4269   O5   -0.946   -1.163    0.387   Os   201      4gA  -0.574000
  4270   C5    0.074   -0.935   -0.689   Cg   201      4gA   0.283000
  4271   H5    1.017   -1.383   -0.369   H1   201      4gA   0.000000
  4272   C6   -0.381   -1.632   -1.992   Cg   201      4gA   0.276000
  4273  H61   -1.418   -1.375   -2.211   H1   201      4gA   0.000000
  4274  H62    0.231   -1.310   -2.835   H1   201      4gA   0.000000
  4275   O6   -0.261   -3.067   -1.876   Oh   201      4gA  -0.682000
  4276  H6O    0.656   -3.326   -1.992   Ho   201      4gA   0.418000
  4277   C4    0.298    0.580   -0.876   Cg   201      4gA   0.254000
  4278   H4   -0.601    1.028   -1.305   H1   201      4gA   0.000000
  4279   C3    0.625    1.269    0.470   Cg   201      4gA   0.286000
  4280   H3    1.595    0.924    0.832   H1   201      4gA   0.000000
  4281   O3    0.693    2.703    0.252   Oh   201      4gA  -0.699000
  4282  H3O    0.661    3.129    1.119   Ho   201      4gA   0.427000
  4283   C2   -0.448    0.986    1.542   Cg   201      4gA   0.246000
  4284   H2   -1.381    1.457    1.228   H1   201      4gA   0.000000
  4285   O2   -0.053    1.587    2.819   Oh   201      4gA  -0.713000
  4286  H2O    0.544    0.985    3.283   Ho   201      4gA   0.437000
  4287   O4    1.405    0.784   -1.792   Os   201      4gA  -0.468000
  4288   C1   -1.297   -0.286    1.249   Cg   202      4gB   0.384000
  4289   H1   -0.723   -0.686    2.086   H2   202      4gB   0.000000
  4290   C2   -0.947    1.207    0.994   Cg   202      4gB   0.310000
  4291   H2   -1.645    1.621    0.264   H1   202      4gB   0.000000
  4292   O2   -1.060    1.966    2.233   Oh   202      4gB  -0.718000
  4293  H2O   -1.944    1.820    2.594   Ho   202      4gB   0.437000
  4294   C3    0.496    1.336    0.456   Cg   202      4gB   0.284000
  4295   H3    1.197    1.075    1.252   H1   202      4gB   0.000000
  4296   O3    0.738    2.714    0.062   Oh   202      4gB  -0.709000
  4297  H3O    0.498    3.276    0.812   Ho   202      4gB   0.432000
  4298   C4    0.748    0.416   -0.763   Cg   202      4gB   0.276000
  4299   H4    0.154    0.766   -1.610   H1   202      4gB   0.000000
  4300   C5    0.375   -1.048   -0.448   Cg   202      4gB   0.225000
  4301   H5    1.032   -1.422    0.340   H1   202      4gB   0.000000
  4302   C6    0.508   -1.968   -1.676   Cg   202      4gB   0.282000
  4303  H61    1.537   -1.987   -2.033   H1   202      4gB   0.000000
  4304  H62   -0.130   -1.610   -2.486   H1   202      4gB   0.000000
  4305   O6    0.111   -3.308   -1.328   Oh   202      4gB  -0.688000
  4306  H6O   -0.765   -3.269   -0.931   Ho   202      4gB   0.424000
  4307   O5   -1.032   -1.092    0.054   Os   202      4gB  -0.471000
  4308   O4    2.150    0.477   -1.121   Os   202      4gB  -0.468000
  4309   C1   -0.454   -1.140   -1.630   Cg   203      4hA   0.394000
  4310   H1   -0.019   -1.515   -2.556   H2   203      4hA   0.000000
  4311   O5    0.384   -1.586   -0.504   Os   203      4hA  -0.461000
  4312   C5    0.104   -1.018    0.841   Cg   203      4hA   0.279000
  4313   H5   -0.869   -1.387    1.169   H1   203      4hA   0.000000
  4314   C6    1.173   -1.572    1.784   Cg   203      4hA   0.023000
  4315  H61    2.173   -1.243    1.498   Hc   203      4hA   0.000000
  4316  H62    1.174   -2.663    1.785   Hc   203      4hA   0.000000
  4317  H63    1.004   -1.251    2.812   Hc   203      4hA   0.000000
  4318   C4    0.060    0.530    0.783   Cg   203      4hA   0.187000
  4319   H4    1.059    0.920    0.581   H1   203      4hA   0.000000
  4320   C3   -0.914    0.998   -0.320   Cg   203      4hA   0.236000
  4321   H3   -1.925    0.678   -0.057   H1   203      4hA   0.000000
  4322   O3   -0.914    2.448   -0.391   Oh   203      4hA  -0.649000
  4323  H3O   -1.081    2.771    0.503   Ho   203      4hA   0.425000
  4324   C2   -0.563    0.409   -1.705   Cg   203      4hA   0.248000
  4325   H2   -1.336    0.686   -2.423   H1   203      4hA   0.000000
  4326   O2    0.701    0.964   -2.168   Oh   203      4hA  -0.670000
  4327  H2O    0.639    1.921   -2.066   Ho   203      4hA   0.421000
  4328   O4   -0.398    1.051    2.063   Os   203      4hA  -0.433000
  4329   C1   -2.037    0.142   -0.113   Cg   204      4hB   0.381000
  4330   H1   -2.149    1.167   -0.472   H2   204      4hB   0.000000
  4331   C2   -1.281   -0.694   -1.166   Cg   204      4hB   0.243000
  4332   H2   -1.828   -0.697   -2.109   H1   204      4hB   0.000000
  4333   O2   -1.157   -2.052   -0.684   Oh   204      4hB  -0.673000
  4334  H2O   -0.670   -2.574   -1.325   Ho   204      4hB   0.432000
  4335   C3    0.124   -0.093   -1.368   Cg   204      4hB   0.182000
  4336   H3    0.007    0.898   -1.811   H1   204      4hB   0.000000
  4337   O3    0.860   -0.910   -2.299   Oh   204      4hB  -0.665000
  4338  H3O    1.725   -0.523   -2.448   Ho   204      4hB   0.418000
  4339   C4    0.913    0.035   -0.048   Cg   204      4hB   0.388000
  4340   H4    1.208   -0.955    0.306   H1   204      4hB   0.000000
  4341   C5    0.099    0.762    1.049   Cg   204      4hB   0.172000
  4342   H5   -0.014    1.813    0.776   H1   204      4hB   0.000000
  4343  C6M    0.720    0.687    2.445   Cg   204      4hB   0.039000
  4344  H3M    1.705    1.156    2.469   Hc   204      4hB   0.000000
  4345  H2M    0.840   -0.345    2.778   Hc   204      4hB   0.000000
  4346  H1M    0.102    1.201    3.182   Hc   204      4hB   0.000000
  4347   O5   -1.256    0.166    1.143   Os   204      4hB  -0.427000
  4348   O4    2.091    0.817   -0.306   Os   204      4hB  -0.490000
  4349   C2   -0.443   -0.913    0.929   Cg   205      4jA   0.114000
  4350   C1   -1.819   -1.266    1.578   Cg   205      4jA   0.410000
  4351  H11   -1.929   -2.347    1.674   H1   205      4jA   0.000000
  4352  H12   -1.878   -0.832    2.577   H1   205      4jA   0.000000
  4353   O1   -2.911   -0.762    0.792   Oh   205      4jA  -0.656000
  4354  H1O   -2.581    0.052    0.380   Ho   205      4jA   0.405000
  4355   O6   -0.342   -1.506   -0.426   Os   205      4jA  -0.504000
  4356   C6    0.858   -1.197   -1.251   Cg   205      4jA   0.368000
  4357  H6A    1.718   -1.713   -0.821   H1   205      4jA   0.000000
  4358  H6E    0.705   -1.586   -2.258   H1   205      4jA   0.000000
  4359   C5    1.128    0.319   -1.306   Cg   205      4jA   0.273000
  4360   H5    0.347    0.804   -1.893   H1   205      4jA   0.000000
  4361   O5    2.407    0.540   -1.960   Oh   205      4jA  -0.699000
  4362  H5O    2.585    1.489   -1.955   Ho   205      4jA   0.419000
  4363   C4    1.164    0.916    0.121   Cg   205      4jA   0.281000
  4364   H4    2.000    0.476    0.667   H1   205      4jA   0.000000
  4365   C3   -0.149    0.620    0.891   Cg   205      4jA   0.271000
  4366   H3   -0.057    0.998    1.910   H1   205      4jA   0.000000
  4367   O3   -1.247    1.329    0.245   Oh   205      4jA  -0.654000
  4368  H3O   -0.938    2.221    0.039   Ho   205      4jA   0.425000
  4369   O4    1.381    2.359    0.065   Os   205      4jA  -0.453000
  4370   C2   -1.189   -0.610    0.591   Cg   206      4jB   0.413000
  4371   C1   -0.362   -1.121    1.817   Cg   206      4jB   0.280000
  4372  H11    0.649   -0.718    1.788   H1   206      4jB   0.000000
  4373  H12   -0.823   -0.776    2.744   H1   206      4jB   0.000000
  4374   O1   -0.257   -2.561    1.860   Oh   206      4jB  -0.722000
  4375  H1O   -1.120   -2.925    1.628   Ho   206      4jB   0.432000
  4376   C3   -1.056    0.942    0.401   Cg   206      4jB   0.363000
  4377   H3   -1.243    1.448    1.349   H1   206      4jB   0.000000
  4378   O3   -2.018    1.437   -0.581   Oh   206      4jB  -0.725000
  4379  H3O   -1.789    2.361   -0.750   Ho   206      4jB   0.432000
  4380   C4    0.361    1.310   -0.113   Cg   206      4jB   0.155000
  4381   H4    1.084    1.058    0.662   H1   206      4jB   0.000000
  4382   C5    0.731    0.529   -1.400   Cg   206      4jB   0.374000
  4383   H5    0.114    0.879   -2.229   H1   206      4jB   0.000000
  4384   C6    0.527   -0.995   -1.230   Cg   206      4jB   0.292000
  4385  H6A    1.285   -1.400   -0.558   H1   206      4jB   0.000000
  4386  H6E    0.632   -1.494   -2.193   H1   206      4jB   0.000000
  4387   O6   -0.815   -1.294   -0.671   Os   206      4jB  -0.551000
  4388   O5    2.127    0.796   -1.713   Oh   206      4jB  -0.729000
  4389  H5O    2.710    0.384   -1.069   Ho   206      4jB   0.426000
  4390   O4    0.453    2.749   -0.332   Os   206      4jB  -0.440000
  4391   C1   -0.595   -1.545    0.859   Cg   207      4kA   0.473000
  4392   H1   -1.385   -2.078    1.387   H2   207      4kA   0.000000
  4393   O5   -1.196   -0.845   -0.299   Os   207      4kA  -0.540000
  4394   C5   -0.319    0.078   -1.072   Cg   207      4kA   0.301000
  4395   H5    0.512   -0.504   -1.476   H1   207      4kA   0.000000
  4396   C6   -1.114    0.639   -2.259   Cg   207      4kA   0.287000
  4397  H61   -2.029    1.128   -1.919   H1   207      4kA   0.000000
  4398  H62   -0.515    1.368   -2.804   H1   207      4kA   0.000000
  4399   O6   -1.453   -0.439   -3.142   Oh   207      4kA  -0.691000
  4400  H6O   -0.650   -0.862   -3.453   Ho   207      4kA   0.422000
  4401   C4    0.283    1.148   -0.127   Cg   207      4kA   0.196000
  4402   H4    1.012    1.746   -0.676   H1   207      4kA   0.000000
  4403   C3    0.944    0.543    1.126   Cg   207      4kA   0.354000
  4404   H3    1.201    1.332    1.834   H1   207      4kA   0.000000
  4405   O3    2.165   -0.090    0.700   Oh   207      4kA  -0.744000
  4406  H3O    2.612   -0.468    1.461   Ho   207      4kA   0.436000
  4407   C2    0.017   -0.489    1.804   Cg   207      4kA   0.281000
  4408   H2   -0.821    0.071    2.223   H1   207      4kA   0.000000
  4409   O2    0.679   -1.120    2.915   Oh   207      4kA  -0.716000
  4410  H2O    1.416   -1.643    2.592   Ho   207      4kA   0.427000
  4411   O4   -0.764    2.029    0.323   Os   207      4kA  -0.486000
  4412   C1   -1.306   -0.308    1.174   Cg   208      4kB   0.449000
  4413   H1   -0.724   -0.740    1.990   H2   208      4kB   0.000000
  4414   C2   -1.002    1.209    1.004   Cg   208      4kB   0.308000
  4415   H2   -1.693    1.628    0.271   H1   208      4kB   0.000000
  4416   O2   -1.180    1.941    2.257   Oh   208      4kB  -0.710000
  4417  H2O   -2.079    1.784    2.571   Ho   208      4kB   0.426000
  4418   C3    0.443    1.415    0.491   Cg   208      4kB   0.253000
  4419   H3    0.604    2.476    0.290   H1   208      4kB   0.000000
  4420   O3    1.400    1.002    1.502   Oh   208      4kB  -0.710000
  4421  H3O    1.169    1.463    2.321   Ho   208      4kB   0.442000
  4422   C4    0.723    0.601   -0.792   Cg   208      4kB   0.217000
  4423   H4    1.781    0.678   -1.046   H1   208      4kB   0.000000
  4424   C5    0.360   -0.896   -0.595   Cg   208      4kB   0.303000
  4425   H5    1.047   -1.310    0.146   H1   208      4kB   0.000000
  4426   C6    0.508   -1.727   -1.885   Cg   208      4kB   0.259000
  4427  H61    1.507   -1.598   -2.301   H1   208      4kB   0.000000
  4428  H62   -0.218   -1.406   -2.632   H1   208      4kB   0.000000
  4429   O6    0.301   -3.125   -1.602   Oh   208      4kB  -0.670000
  4430  H6O   -0.573   -3.227   -1.213   Ho   208      4kB   0.416000
  4431   O5   -1.034   -1.043   -0.064   Os   208      4kB  -0.514000
  4432   O4   -0.037    1.181   -1.889   Os   208      4kB  -0.469000
  4433   C1   -0.626   -1.594    0.791   Cg   209      4lA   0.465000
  4434   H1   -1.440   -2.109    1.300   H2   209      4lA   0.000000
  4435   O5   -1.179   -0.885   -0.388   Os   209      4lA  -0.527000
  4436   C5   -0.250    0.005   -1.140   Cg   209      4lA   0.216000
  4437   H5    0.586   -0.598   -1.501   H1   209      4lA   0.000000
  4438   C6   -0.985    0.566   -2.366   Cg   209      4lA   0.308000
  4439  H61   -1.902    1.077   -2.070   H1   209      4lA   0.000000
  4440  H62   -0.348    1.274   -2.895   H1   209      4lA   0.000000
  4441   O6   -1.309   -0.518   -3.248   Oh   209      4lA  -0.684000
  4442  H6O   -0.502   -0.962   -3.519   Ho   209      4lA   0.418000
  4443   C4    0.324    1.070   -0.181   Cg   209      4lA   0.204000
  4444   H4    1.064    1.676   -0.706   H1   209      4lA   0.000000
  4445   C3    0.976    0.396    1.045   Cg   209      4lA   0.253000
  4446   H3    1.847   -0.167    0.709   H1   209      4lA   0.000000
  4447   O3    1.425    1.414    1.960   Oh   209      4lA  -0.701000
  4448  H3O    1.840    0.999    2.720   Ho   209      4lA   0.433000
  4449   C2   -0.002   -0.559    1.757   Cg   209      4lA   0.339000
  4450   H2   -0.813    0.025    2.196   H1   209      4lA   0.000000
  4451   O2    0.673   -1.249    2.826   Oh   209      4lA  -0.724000
  4452  H2O    1.379   -1.788    2.462   Ho   209      4lA   0.431000
  4453   O4   -0.758    1.926    0.248   Os   209      4lA  -0.431000
  4454   C1   -1.296   -0.307    1.251   Cg   210      4lB   0.374000
  4455   H1   -0.724   -0.705    2.091   H2   210      4lB   0.000000
  4456   C2   -0.945    1.193    1.016   Cg   210      4lB   0.357000
  4457   H2   -1.646    1.625    0.299   H1   210      4lB   0.000000
  4458   O2   -1.043    1.928    2.272   Oh   210      4lB  -0.726000
  4459  H2O   -1.927    1.780    2.630   Ho   210      4lB   0.432000
  4460   C3    0.499    1.323    0.476   Cg   210      4lB   0.259000
  4461   H3    1.194    1.000    1.254   H1   210      4lB   0.000000
  4462   O3    0.807    2.708    0.153   Oh   210      4lB  -0.694000
  4463  H3O    0.603    3.240    0.935   Ho   210      4lB   0.433000
  4464   C4    0.738    0.447   -0.775   Cg   210      4lB   0.203000
  4465   H4    1.788    0.511   -1.064   H1   210      4lB   0.000000
  4466   C5    0.379   -1.027   -0.480   Cg   210      4lB   0.140000
  4467   H5    1.064   -1.387    0.290   H1   210      4lB   0.000000
  4468   C6    0.522   -1.942   -1.709   Cg   210      4lB   0.319000
  4469  H61    1.519   -1.846   -2.139   H1   210      4lB   0.000000
  4470  H62   -0.211   -1.683   -2.474   H1   210      4lB   0.000000
  4471   O6    0.318   -3.306   -1.304   Oh   210      4lB  -0.693000
  4472  H6O   -0.556   -3.368   -0.911   Ho   210      4lB   0.419000
  4473   O5   -1.012   -1.119    0.060   Os   210      4lB  -0.402000
  4474   O4   -0.071    0.934   -1.873   Os   210      4lB  -0.421000
  4475   C1   -0.777   -0.652    1.753   Cg   211      4mA   0.433000
  4476   H1   -1.710   -0.832    2.287   H2   211      4mA   0.000000
  4477   O5   -0.859   -1.288    0.430   Os   211      4mA  -0.507000
  4478   C5    0.215   -0.993   -0.570   Cg   211      4mA   0.276000
  4479   H5    1.145   -1.439   -0.209   H1   211      4mA   0.000000
  4480   C6   -0.149   -1.645   -1.922   Cg   211      4mA   0.266000
  4481  H61   -1.168   -1.377   -2.204   H1   211      4mA   0.000000
  4482  H62    0.520   -1.296   -2.708   H1   211      4mA   0.000000
  4483   O6   -0.038   -3.083   -1.848   Oh   211      4mA  -0.688000
  4484  H6O    0.887   -3.339   -1.821   Ho   211      4mA   0.422000
  4485   C4    0.429    0.533   -0.698   Cg   211      4mA   0.326000
  4486   H4   -0.438    0.990   -1.177   H1   211      4mA   0.000000
  4487   C3    0.658    1.169    0.696   Cg   211      4mA   0.252000
  4488   H3    1.569    0.749    1.126   H1   211      4mA   0.000000
  4489   O3    0.850    2.613    0.581   Oh   211      4mA  -0.696000
  4490  H3O    1.268    2.950    1.382   Ho   211      4mA   0.431000
  4491   C2   -0.518    0.878    1.655   Cg   211      4mA   0.245000
  4492   H2   -0.279    1.268    2.645   H1   211      4mA   0.000000
  4493   O2   -1.719    1.558    1.182   Oh   211      4mA  -0.717000
  4494  H2O   -1.486    2.462    0.938   Ho   211      4mA   0.446000
  4495   O4    1.601    0.775   -1.519   Os   211      4mA  -0.489000
  4496   C1   -1.291   -0.306    1.425   Cg   212      4mB   0.314000
  4497   H1   -0.658   -0.607    2.261   H2   212      4mB   0.000000
  4498   C2   -1.067    1.196    1.098   Cg   212      4mB   0.241000
  4499   H2   -1.286    1.804    1.977   H1   212      4mB   0.000000
  4500   O2   -1.948    1.600    0.007   Oh   212      4mB  -0.664000
  4501  H2O   -2.851    1.387    0.269   Ho   212      4mB   0.431000
  4502   C3    0.417    1.362    0.694   Cg   212      4mB   0.263000
  4503   H3    1.032    1.013    1.526   H1   212      4mB   0.000000
  4504   O3    0.743    2.768    0.490   Oh   212      4mB  -0.692000
  4505  H3O    1.683    2.906    0.638   Ho   212      4mB   0.430000
  4506   C4    0.744    0.502   -0.557   Cg   212      4mB   0.349000
  4507   H4    0.168    0.856   -1.414   H1   212      4mB   0.000000
  4508   C5    0.419   -0.989   -0.288   Cg   212      4mB   0.206000
  4509   H5    1.118   -1.370    0.460   H1   212      4mB   0.000000
  4510   C6    0.549   -1.844   -1.562   Cg   212      4mB   0.273000
  4511  H61    1.562   -1.786   -1.960   H1   212      4mB   0.000000
  4512  H62   -0.142   -1.487   -2.327   H1   212      4mB   0.000000
  4513   O6    0.246   -3.218   -1.261   Oh   212      4mB  -0.680000
  4514  H6O   -0.630   -3.257   -0.867   Ho   212      4mB   0.419000
  4515   O5   -0.966   -1.143    0.261   Os   212      4mB  -0.393000
  4516   O4    2.157    0.613   -0.871   Os   212      4mB  -0.497000
  4517   C1   -0.530   -1.658    0.858   Cg   213      4nA   0.478000
  4518   H1   -1.320   -2.242    1.330   H2   213      4nA   0.000000
  4519   O5   -1.090   -0.997   -0.342   Os   213      4nA  -0.611000
  4520   C5   -0.263    0.024   -1.043   Cg   213      4nA   0.404000
  4521   H5    0.625   -0.466   -1.448   H1   213      4nA   0.000000
  4522   C6   -1.099    0.584   -2.203   Cg   213      4nA   0.280000
  4523  H61   -2.042    0.991   -1.836   H1   213      4nA   0.000000
  4524  H62   -0.557    1.378   -2.715   H1   213      4nA   0.000000
  4525   O6   -1.365   -0.470   -3.138   Oh   213      4nA  -0.663000
  4526  H6O   -0.536   -0.818   -3.473   Ho   213      4nA   0.396000
  4527   C4    0.174    1.093   -0.017   Cg   213      4nA   0.167000
  4528   H4   -0.712    1.639    0.311   H1   213      4nA   0.000000
  4529   C3    0.864    0.508    1.232   Cg   213      4nA   0.330000
  4530   H3    1.050    1.298    1.961   H1   213      4nA   0.000000
  4531   O3    2.126   -0.089    0.860   Oh   213      4nA  -0.714000
  4532  H3O    2.716    0.591    0.529   Ho   213      4nA   0.441000
  4533   C2   -0.056   -0.567    1.844   Cg   213      4nA   0.228000
  4534   H2   -0.953   -0.053    2.194   H1   213      4nA   0.000000
  4535   O2    0.555   -1.160    3.003   Oh   213      4nA  -0.668000
  4536  H2O    1.354   -1.623    2.741   Ho   213      4nA   0.415000
  4537   O4    1.059    2.036   -0.649   Os   213      4nA  -0.483000
  4538   C1   -1.306   -0.285    1.190   Cg   214      4nB   0.422000
  4539   H1   -0.724   -0.690    2.020   H2   214      4nB   0.000000
  4540   C2   -1.002    1.228    0.975   Cg   214      4nB   0.301000
  4541   H2   -1.703    1.629    0.238   H1   214      4nB   0.000000
  4542   O2   -1.164    1.991    2.207   Oh   214      4nB  -0.703000
  4543  H2O   -2.070    1.874    2.521   Ho   214      4nB   0.424000
  4544   C3    0.431    1.430    0.437   Cg   214      4nB   0.234000
  4545   H3    0.589    2.487    0.214   H1   214      4nB   0.000000
  4546   O3    1.395    1.021    1.451   Oh   214      4nB  -0.615000
  4547  H3O    1.133    1.433    2.286   Ho   214      4nB   0.389000
  4548   C4    0.635    0.591   -0.845   Cg   214      4nB   0.286000
  4549   H4   -0.061    0.943   -1.608   H1   214      4nB   0.000000
  4550   C5    0.366   -0.910   -0.584   Cg   214      4nB   0.198000
  4551   H5    1.077   -1.278    0.157   H1   214      4nB   0.000000
  4552   C6    0.506   -1.770   -1.855   Cg   214      4nB   0.313000
  4553  H61    1.519   -1.709   -2.252   H1   214      4nB   0.000000
  4554  H62   -0.189   -1.427   -2.622   H1   214      4nB   0.000000
  4555   O6    0.213   -3.140   -1.533   Oh   214      4nB  -0.689000
  4556  H6O   -0.603   -3.152   -1.022   Ho   214      4nB   0.418000
  4557   O5   -1.019   -1.056   -0.028   Os   214      4nB  -0.507000
  4558   O4    1.978    0.790   -1.347   Os   214      4nB  -0.471000
  4559   C1   -0.647   -0.849    1.525   Cg   215      4oA   0.305000
  4560   H1   -1.531   -1.028    2.137   H2   215      4oA   0.000000
  4561   O5   -0.821   -1.538    0.237   Os   215      4oA  -0.424000
  4562   C5    0.153   -1.224   -0.879   Cg   215      4oA   0.054000
  4563   H5    1.139   -1.579   -0.571   H1   215      4oA   0.000000
  4564   C6   -0.158   -1.846   -2.283    C   215      4oA   0.896000
  4565  O6B   -1.318   -1.693   -2.735   O2   215      4oA  -0.822000
  4566  O6A    0.806   -2.366   -2.890   O2   215      4oA  -0.822000
  4567   C4    0.214    0.301   -1.080   Cg   215      4oA   0.267000
  4568   H4    0.955    0.540   -1.844   H1   215      4oA   0.000000
  4569   C3    0.607    0.989    0.253   Cg   215      4oA   0.251000
  4570   H3    1.562    0.571    0.581   H1   215      4oA   0.000000
  4571   O3    0.816    2.424    0.082   Oh   215      4oA  -0.725000
  4572  H3O    0.697    2.836    0.946   Ho   215      4oA   0.416000
  4573   C2   -0.451    0.691    1.343   Cg   215      4oA   0.413000
  4574   H2   -1.403    1.139    1.055   H1   215      4oA   0.000000
  4575   O2   -0.041    1.279    2.620   Oh   215      4oA  -0.771000
  4576  H2O    0.516    0.615    3.045   Ho   215      4oA   0.431000
  4577   O4   -1.095    0.736   -1.541   Os   215      4oA  -0.469000
  4578   C1   -1.369   -0.619    1.189   Cg   216      4oB   0.301000
  4579   H1   -0.785   -1.000    2.028   H2   216      4oB   0.000000
  4580   C2   -1.060    0.891    0.954   Cg   216      4oB   0.383000
  4581   H2   -1.805    1.316    0.280   H1   216      4oB   0.000000
  4582   O2   -1.152    1.565    2.245   Oh   216      4oB  -0.732000
  4583  H2O   -2.020    1.354    2.602   Ho   216      4oB   0.401000
  4584   C3    0.356    1.080    0.347   Cg   216      4oB   0.259000
  4585   H3    1.092    0.787    1.098   H1   216      4oB   0.000000
  4586   O3    0.629    2.474   -0.016   Oh   216      4oB  -0.708000
  4587  H3O    1.579    2.615   -0.031   Ho   216      4oB   0.404000
  4588   C4    0.568    0.192   -0.904   Cg   216      4oB   0.260000
  4589   H4    1.595    0.320   -1.248   H1   216      4oB   0.000000
  4590   C5    0.306   -1.287   -0.575   Cg   216      4oB   0.049000
  4591   H5    1.005   -1.570    0.214   H1   216      4oB   0.000000
  4592   C6    0.702   -2.196   -1.798    C   216      4oB   0.838000
  4593  O6A   -0.070   -3.127   -2.132   O2   216      4oB  -0.794000
  4594  O6B    1.834   -1.989   -2.301   O2   216      4oB  -0.794000
  4595   O5   -1.075   -1.429    0.007   Os   216      4oB  -0.414000
  4596   O4   -0.329    0.624   -1.959   Os   216      4oB  -0.453000
  4597   C2   -0.521   -1.160    0.074   Cg   217      4pA   0.417000
  4598   C1   -1.823   -1.797    0.596   Cg   217      4pA   0.327000
  4599  H11   -2.188   -2.548   -0.107   H1   217      4pA   0.000000
  4600  H12   -1.653   -2.286    1.556   H1   217      4pA   0.000000
  4601   O1   -2.835   -0.791    0.760   Oh   217      4pA  -0.644000
  4602  H1O   -2.533   -0.135    1.392   Ho   217      4pA   0.393000
  4603   O6   -0.819   -0.530   -1.241   Os   217      4pA  -0.598000
  4604   C6    0.258    0.230   -1.918   Cg   217      4pA   0.393000
  4605  H6A    1.054   -0.457   -2.211   H1   217      4pA   0.000000
  4606  H6E   -0.143    0.691   -2.820   H1   217      4pA   0.000000
  4607   C5    0.792    1.305   -0.959   Cg   217      4pA   0.153000
  4608   H5   -0.006    2.024   -0.772   H1   217      4pA   0.000000
  4609   O5    1.872    2.004   -1.600   Oh   217      4pA  -0.693000
  4610  H5O    2.197    2.695   -1.017   Ho   217      4pA   0.428000
  4611   C4    1.261    0.733    0.393   Cg   217      4pA   0.394000
  4612   H4    1.545    1.545    1.063   H1   217      4pA   0.000000
  4613   C3    0.103   -0.081    1.008   Cg   217      4pA   0.150000
  4614   H3   -0.683    0.639    1.239   H1   217      4pA   0.000000
  4615   O3    0.513   -0.653    2.265   Oh   217      4pA  -0.665000
  4616  H3O    1.204   -1.302    2.111   Ho   217      4pA   0.409000
  4617   O4    2.405   -0.126    0.188   Os   217      4pA  -0.464000
  4618   C2   -1.237   -0.467    0.388   Cg   218      4pB   0.407000
  4619   C1   -0.562   -1.132    1.642   Cg   218      4pB   0.379000
  4620  H11    0.519   -1.010    1.600   H1   218      4pB   0.000000
  4621  H12   -0.913   -0.650    2.555   H1   218      4pB   0.000000
  4622   O1   -0.837   -2.555    1.739   Oh   218      4pB  -0.720000
  4623  H1O   -0.390   -2.915    2.510   Ho   218      4pB   0.410000
  4624   C3   -0.951    1.058    0.210   Cg   218      4pB   0.180000
  4625   H3   -1.674    1.453   -0.507   H1   218      4pB   0.000000
  4626   O3   -1.135    1.802    1.455   Oh   218      4pB  -0.681000
  4627  H3O   -2.070    1.762    1.698   Ho   218      4pB   0.422000
  4628   C4    0.448    1.351   -0.385   Cg   218      4pB   0.328000
  4629   H4    0.514    2.411   -0.636   H1   218      4pB   0.000000
  4630   C5    0.714    0.513   -1.657   Cg   218      4pB   0.188000
  4631   H5    0.018    0.833   -2.434   H1   218      4pB   0.000000
  4632   C6    0.480   -0.986   -1.393   Cg   218      4pB   0.364000
  4633  H6A    1.205   -1.374   -0.677   H1   218      4pB   0.000000
  4634  H6E    0.583   -1.550   -2.321   H1   218      4pB   0.000000
  4635   O6   -0.893   -1.175   -0.864   Os   218      4pB  -0.540000
  4636   O5    2.063    0.743   -2.148   Oh   218      4pB  -0.705000
  4637  H5O    2.654    0.829   -1.387   Ho   218      4pB   0.433000
  4638   O4    1.464    1.058    0.611   Os   218      4pB  -0.465000
  4639   C1   -0.419   -1.037   -1.579   Cg   219      4qA   0.465000
  4640   H1   -0.091   -1.425   -2.543   H1   219      4qA   0.000000
  4641   O5    0.528   -1.482   -0.550   Os   219      4qA  -0.559000
  4642   C5    0.327   -0.966    0.830   Cg   219      4qA   0.234000
  4643   H5   -0.621   -1.355    1.207   H1   219      4qA   0.000000
  4644   C6    1.456   -1.539    1.691   Cg   219      4qA   0.060000
  4645  H61    1.466   -2.629    1.656   Hc   219      4qA   0.000000
  4646  H62    1.346   -1.253    2.738   Hc   219      4qA   0.000000
  4647  H63    2.435   -1.191    1.356   Hc   219      4qA   0.000000
  4648   C4    0.266    0.579    0.816   Cg   219      4qA   0.208000
  4649   H4    1.257    0.973    0.581   H1   219      4qA   0.000000
  4650   C3   -0.751    1.107   -0.227   Cg   219      4qA   0.312000
  4651   H3   -1.764    0.856    0.093   H1   219      4qA   0.000000
  4652   O3   -0.619    2.552   -0.262   Oh   219      4qA  -0.697000
  4653  H3O   -0.762    2.878    0.633   Ho   219      4qA   0.424000
  4654   C2   -0.500    0.516   -1.638   Cg   219      4qA   0.281000
  4655   H2    0.461    0.885   -1.999   H1   219      4qA   0.000000
  4656   O2   -1.523    0.926   -2.601   Oh   219      4qA  -0.695000
  4657  H2O   -2.373    0.553   -2.343   Ho   219      4qA   0.422000
  4658   O4   -0.119    1.048    2.140   Os   219      4qA  -0.455000
  4659   C1   -1.210   -0.575    1.265   Cg   220      4qB   0.391000
  4660   H1   -0.558   -0.991    2.034   H1   220      4qB   0.000000
  4661   C2   -0.950    0.944    1.067   Cg   220      4qB   0.323000
  4662   H2   -1.710    1.356    0.401   H1   220      4qB   0.000000
  4663   O2   -1.019    1.642    2.347   Oh   220      4qB  -0.713000
  4664  H2O   -1.866    1.427    2.758   Ho   220      4qB   0.420000
  4665   C3    0.450    1.160    0.446   Cg   220      4qB   0.300000
  4666   H3    1.208    0.894    1.186   H1   220      4qB   0.000000
  4667   O3    0.610    2.565    0.109   Oh   220      4qB  -0.689000
  4668  H3O    0.393    3.078    0.898   Ho   220      4qB   0.420000
  4669   C4    0.672    0.312   -0.831   Cg   220      4qB   0.250000
  4670   H4    0.033    0.690   -1.631   H1   220      4qB   0.000000
  4671   C5    0.348   -1.181   -0.581   Cg   220      4qB   0.271000
  4672   H5    1.068   -1.592    0.129   H1   220      4qB   0.000000
  4673   C6    0.366   -2.043   -1.845   Cg   220      4qB   0.048000
  4674  H61    0.106   -3.079   -1.621   Hc   220      4qB   0.000000
  4675  H62    1.354   -2.054   -2.308   Hc   220      4qB   0.000000
  4676  H63   -0.343   -1.681   -2.590   Hc   220      4qB   0.000000
  4677   O5   -1.010   -1.298    0.011   Os   220      4qB  -0.535000
  4678   O4    2.058    0.429   -1.245   Os   220      4qB  -0.486000
  4679   C1   -1.091   -1.416    0.126   Cg   221      4rA   0.488000
  4680   H1   -2.033   -1.823    0.493   H2   221      4rA   0.000000
  4681   O5   -1.340   -0.766   -1.183   Os   221      4rA  -0.561000
  4682   C5   -0.247    0.047   -1.770   Cg   221      4rA   0.377000
  4683  H5A    0.585   -0.607   -2.033   H1   221      4rA   0.000000
  4684  H5E   -0.607    0.522   -2.683   H1   221      4rA   0.000000
  4685   C4    0.197    1.110   -0.753   Cg   221      4rA   0.122000
  4686   H4   -0.630    1.807   -0.604   H1   221      4rA   0.000000
  4687   C3    0.587    0.519    0.617   Cg   221      4rA   0.345000
  4688   H3    0.794    1.321    1.326   H1   221      4rA   0.000000
  4689   O3    1.770   -0.298    0.477   Oh   221      4rA  -0.737000
  4690  H3O    2.505    0.249    0.191   Ho   221      4rA   0.443000
  4691   C2   -0.584   -0.347    1.123   Cg   221      4rA   0.253000
  4692   H2   -1.421    0.329    1.305   H1   221      4rA   0.000000
  4693   O2   -0.262   -0.947    2.391   Oh   221      4rA  -0.711000
  4694  H2O    0.476   -1.551    2.279   Ho   221      4rA   0.419000
  4695   O4    1.299    1.848   -1.304   Os   221      4rA  -0.438000
  4696   C1   -1.393   -0.739    0.730   Cg   222      4rB   0.481000
  4697   H1   -0.887   -1.138    1.609   H2   222      4rB   0.000000
  4698   C2   -1.022    0.758    0.479   Cg   222      4rB   0.385000
  4699   H2   -1.607    1.115   -0.372   H1   222      4rB   0.000000
  4700   O2   -1.340    1.627    1.606   Oh   222      4rB  -0.732000
  4701  H2O   -2.226    1.414    1.918   Ho   222      4rB   0.414000
  4702   C3    0.479    0.857    0.105   Cg   222      4rB   0.203000
  4703   H3    0.740    1.897   -0.098   H1   222      4rB   0.000000
  4704   O3    1.327    0.359    1.184   Oh   222      4rB  -0.696000
  4705  H3O    2.247    0.377    0.894   Ho   222      4rB   0.428000
  4706   C4    0.731    0.001   -1.160   Cg   222      4rB   0.236000
  4707   H4    0.120    0.387   -1.976   H1   222      4rB   0.000000
  4708   C5    0.342   -1.478   -0.912   Cg   222      4rB   0.335000
  4709  H5A    0.994   -1.929   -0.163   H1   222      4rB   0.000000
  4710  H5E    0.443   -2.050   -1.834   H1   222      4rB   0.000000
  4711   O5   -1.069   -1.559   -0.447   Os   222      4rB  -0.576000
  4712   O4    2.123    0.100   -1.565   Os   222      4rB  -0.478000
  4713   C2   -2.741   -0.228   -1.033   Cy   223      4sA   0.237000
  4714   C1   -2.232   -0.961   -2.407    C   223      4sA   0.789000
  4715  O1B   -2.372   -0.369   -3.504   O2   223      4sA  -0.761000
  4716  O1A   -1.604   -2.045   -2.260   O2   223      4sA  -0.761000
  4717   O6   -1.879   -0.510    0.077   Oy   223      4sA  -0.403000
  4718   C6   -0.509   -0.095   -0.084   Cg   223      4sA   0.220000
  4719   H6   -0.149   -0.416   -1.062   H1   223      4sA   0.000000
  4720   C7    0.381   -0.846    0.928   Cg   223      4sA   0.111000
  4721   H7    1.422   -0.668    0.654   H1   223      4sA   0.000000
  4722   O7    0.191   -0.299    2.269   Oh   223      4sA  -0.721000
  4723  H7O    0.551    0.608    2.313   Ho   223      4sA   0.435000
  4724   C8    0.137   -2.382    0.899   Cg   223      4sA   0.492000
  4725   H8   -0.892   -2.602    1.189   H1   223      4sA   0.000000
  4726   O8    0.360   -2.875   -0.457   Oh   223      4sA  -0.739000
  4727  H8O   -0.376   -2.597   -1.046   Ho   223      4sA   0.412000
  4728   C9    1.101   -3.152    1.840   Cg   223      4sA   0.178000
  4729  H9R    2.132   -3.006    1.516   H1   223      4sA   0.000000
  4730  H9S    1.014   -2.773    2.859   H1   223      4sA   0.000000
  4731   O9    0.814   -4.573    1.857   Oh   223      4sA  -0.689000
  4732  H9O    0.751   -4.859    0.937   Ho   223      4sA   0.408000
  4733   C5   -0.477    1.449   -0.104   Cg   223      4sA   0.308000
  4734   H5   -0.846    1.817    0.855   H1   223      4sA   0.000000
  4735   N5    0.906    1.944   -0.313   Ng   223      4sA  -0.629000
  4736  H5N    1.263    1.944   -1.255    H   223      4sA   0.280000
  4737  C5N    1.735    2.267    0.686    C   223      4sA   0.632000
  4738  O5N    1.408    2.163    1.865    O   223      4sA  -0.593000
  4739  CME    3.137    2.757    0.278   Cg   223      4sA  -0.003000
  4740  H1M    3.815    1.904    0.217   Hc   223      4sA   0.000000
  4741  H2M    3.516    3.457    1.025   Hc   223      4sA   0.000000
  4742  H3M    3.108    3.262   -0.689   Hc   223      4sA   0.000000
  4743   C4   -1.437    1.949   -1.227   Cg   223      4sA   0.332000
  4744   H4   -0.999    1.704   -2.196   H1   223      4sA   0.000000
  4745   C3   -2.838    1.315   -1.154   Cg   223      4sA   0.006000
  4746  H3A   -3.370    1.728   -0.293   Hc   223      4sA   0.000000
  4747  H3E   -3.430    1.598   -2.027   Hc   223      4sA   0.000000
  4748   O4   -1.588    3.390   -1.154   Os   223      4sA  -0.541000
  4749   C2    0.120   -0.278    2.865   Cy   224      4sB   0.090000
  4750   C1    1.089   -0.873    4.024    C   224      4sB   0.979000
  4751  O1A    2.324   -0.662    3.964   O2   224      4sB  -0.839000
  4752  O1B    0.498   -1.494    4.946   O2   224      4sB  -0.839000
  4753   C3    0.301    1.260    2.905   Cg   224      4sB   0.133000
  4754  H3A    1.363    1.516    2.861   Hc   224      4sB   0.000000
  4755  H3E   -0.055    1.653    3.860   Hc   224      4sB   0.000000
  4756   C4   -0.427    1.968    1.749   Cg   224      4sB   0.203000
  4757   H4   -1.502    1.824    1.877   H1   224      4sB   0.000000
  4758   C5    0.002    1.371    0.379   Cg   224      4sB   0.523000
  4759   H5    1.055    1.613    0.219   H1   224      4sB   0.000000
  4760   C6   -0.171   -0.160    0.386   Cg   224      4sB  -0.008000
  4761   H6   -1.238   -0.362    0.502   H1   224      4sB   0.000000
  4762   C7    0.271   -0.923   -0.885   Cg   224      4sB   0.278000
  4763   H7   -0.434   -0.671   -1.679   H1   224      4sB   0.000000
  4764   C8    0.286   -2.471   -0.734   Cg   224      4sB   0.367000
  4765   H8    1.079   -2.764   -0.044   H1   224      4sB   0.000000
  4766   C9    0.497   -3.193   -2.086   Cg   224      4sB   0.201000
  4767  H9R   -0.308   -2.938   -2.776   H1   224      4sB   0.000000
  4768  H9S    1.440   -2.882   -2.536   H1   224      4sB   0.000000
  4769   O9    0.523   -4.627   -1.908   Oh   224      4sB  -0.672000
  4770  H9O   -0.199   -4.849   -1.308   Ho   224      4sB   0.393000
  4771   O8   -0.991   -2.908   -0.176   Oh   224      4sB  -0.704000
  4772  H8O   -1.037   -2.567    0.728   Ho   224      4sB   0.392000
  4773   O7    1.577   -0.459   -1.306   Oh   224      4sB  -0.656000
  4774  H7O    1.509    0.454   -1.639   Ho   224      4sB   0.390000
  4775   O6    0.498   -0.711    1.540   Oy   224      4sB  -0.344000
  4776   N5   -0.813    1.958   -0.701   Ng   224      4sB  -0.669000
  4777  H5N   -1.798    2.059   -0.528    H   224      4sB   0.261000
  4778  C5N   -0.319    2.281   -1.896    C   224      4sB   0.678000
  4779  CME   -1.285    2.970   -2.879   Cg   224      4sB  -0.005000
  4780  H1M   -1.084    2.626   -3.894   Hc   224      4sB   0.000000
  4781  H2M   -1.136    4.050   -2.834   Hc   224      4sB   0.000000
  4782  H3M   -2.325    2.743   -2.633   Hc   224      4sB   0.000000
  4783  O5N    0.845    2.044   -2.197    O   224      4sB  -0.634000
  4784   O4   -0.158    3.401    1.832   Os   224      4sB  -0.518000
  4785   C1   -0.471   -1.658    0.787   Cg   225      4tA   0.456000
  4786   H1   -1.301   -2.169    1.279   H2   225      4tA   0.000000
  4787   O5   -0.998   -0.967   -0.417   Os   225      4tA  -0.480000
  4788   C5   -0.074   -0.065   -1.157   Cg   225      4tA   0.157000
  4789   H5    0.782   -0.654   -1.493   H1   225      4tA   0.000000
  4790   C6   -0.794    0.466   -2.404   Cg   225      4tA   0.304000
  4791  H61   -1.729    0.959   -2.133   H1   225      4tA   0.000000
  4792  H62   -0.163    1.185   -2.927   H1   225      4tA   0.000000
  4793   O6   -1.074   -0.633   -3.281   Oh   225      4tA  -0.669000
  4794  H6O   -0.251   -1.060   -3.532   Ho   225      4tA   0.401000
  4795   C4    0.460    1.024   -0.201   Cg   225      4tA   0.434000
  4796   H4    1.217    1.619   -0.713   H1   225      4tA   0.000000
  4797   C3    1.077    0.363    1.049   Cg   225      4tA   0.124000
  4798   H3    1.953   -0.192    0.711   H1   225      4tA   0.000000
  4799   O3    1.556    1.361    1.968   Oh   225      4tA  -0.687000
  4800  H3O    1.982    0.932    2.713   Ho   225      4tA   0.442000
  4801   C2    0.160   -0.650    1.769   Cg   225      4tA   0.245000
  4802   H2    0.726   -1.179    2.537   H1   225      4tA   0.000000
  4803   O2   -0.933    0.032    2.412   Oh   225      4tA  -0.655000
  4804  H2O   -1.494   -0.608    2.855   Ho   225      4tA   0.436000
  4805   O4   -0.628    1.893    0.178   Os   225      4tA  -0.508000
  4806   C1   -1.169   -1.146    0.961   Cg   226      4tB   0.306000
  4807   H1   -0.619   -2.088    0.954   H2   226      4tB   0.000000
  4808   C2   -0.443   -0.141    1.882   Cg   226      4tB   0.340000
  4809   H2   -0.327   -0.566    2.880   H1   226      4tB   0.000000
  4810   O2   -1.227    1.068    1.976   Oh   226      4tB  -0.637000
  4811  H2O   -2.096    0.858    2.325   Ho   226      4tB   0.397000
  4812   C3    0.943    0.180    1.280   Cg   226      4tB   0.174000
  4813   H3    1.530   -0.738    1.332   H1   226      4tB   0.000000
  4814   O3    1.633    1.153    2.086   Oh   226      4tB  -0.678000
  4815  H3O    1.149    1.982    2.069   Ho   226      4tB   0.425000
  4816   C4    0.924    0.614   -0.205   Cg   226      4tB   0.314000
  4817   H4    1.946    0.672   -0.582   H1   226      4tB   0.000000
  4818   C5    0.121   -0.404   -1.048   Cg   226      4tB   0.031000
  4819   H5    0.666   -1.349   -1.026   H1   226      4tB   0.000000
  4820   C6   -0.080   -0.016   -2.520   Cg   226      4tB   0.349000
  4821  H61    0.879    0.210   -2.985   H1   226      4tB   0.000000
  4822  H62   -0.723    0.861   -2.607   H1   226      4tB   0.000000
  4823   O6   -0.685   -1.118   -3.211   Oh   226      4tB  -0.666000
  4824  H6O   -1.528   -1.326   -2.802   Ho   226      4tB   0.406000
  4825   O5   -1.210   -0.623   -0.423   Os   226      4tB  -0.354000
  4826   O4    0.314    1.915   -0.335   Os   226      4tB  -0.407000
  4827   C1   -1.598   -1.050    0.209   Cg   227      4uA   0.363000
  4828   H1   -1.458   -1.545   -0.751   H2   227      4uA   0.000000
  4829   O5   -0.560   -1.494    1.142   Os   227      4uA  -0.515000
  4830   C5    0.846   -1.092    0.793   Cg   227      4uA   0.232000
  4831   H5    1.482   -1.443    1.607   H1   227      4uA   0.000000
  4832   C6    1.496   -1.676   -0.536    C   227      4uA   0.697000
  4833  O6B    2.651   -1.282   -0.829   O2   227      4uA  -0.757000
  4834  O6A    0.809   -2.446   -1.245   O2   227      4uA  -0.757000
  4835   C4    0.885    0.448    0.806   Cg   227      4uA   0.223000
  4836   H4    0.621    0.791    1.808   H1   227      4uA   0.000000
  4837   C3   -0.150    1.021   -0.198   Cg   227      4uA   0.417000
  4838   H3    0.161    0.753   -1.209   H1   227      4uA   0.000000
  4839   O3   -0.109    2.470   -0.078   Oh   227      4uA  -0.771000
  4840  H3O    0.829    2.693   -0.014   Ho   227      4uA   0.417000
  4841   C2   -1.596    0.500    0.038   Cg   227      4uA   0.259000
  4842   H2   -1.990    0.953    0.950   H1   227      4uA   0.000000
  4843   O2   -2.465    0.877   -1.085   Oh   227      4uA  -0.685000
  4844  H2O   -2.081    0.583   -1.914   Ho   227      4uA   0.385000
  4845   O4    2.228    0.937    0.506   Os   227      4uA  -0.508000
  4846   C1    0.549   -1.257    1.360   Cg   228      4uB   0.278000
  4847   H1    1.290   -1.725    2.008   H2   228      4uB   0.000000
  4848   C2    0.811    0.277    1.316   Cg   228      4uB   0.289000
  4849   H2    1.850    0.417    1.012   H1   228      4uB   0.000000
  4850   O2    0.669    0.906    2.621   Oh   228      4uB  -0.680000
  4851  H2O    0.534    1.843    2.441   Ho   228      4uB   0.422000
  4852   C3   -0.084    0.982    0.273   Cg   228      4uB   0.286000
  4853   H3   -1.134    0.896    0.557   H1   228      4uB   0.000000
  4854   O3    0.273    2.396    0.209   Oh   228      4uB  -0.755000
  4855  H3O   -0.120    2.725   -0.612   Ho   228      4uB   0.421000
  4856   C4    0.140    0.342   -1.123   Cg   228      4uB   0.308000
  4857   H4    1.185    0.496   -1.399   H1   228      4uB   0.000000
  4858   C5   -0.120   -1.182   -1.111   Cg   228      4uB   0.194000
  4859   H5    0.267   -1.584   -2.049   H1   228      4uB   0.000000
  4860   C6   -1.666   -1.510   -1.128    C   228      4uB   0.750000
  4861  O6A   -2.096   -2.315   -0.270   O2   228      4uB  -0.783000
  4862  O6B   -2.378   -0.921   -1.977   O2   228      4uB  -0.783000
  4863   O5    0.702   -1.804   -0.005   Os   228      4uB  -0.430000
  4864   O4   -0.674    1.018   -2.124   Os   228      4uB  -0.517000
  4865   C1   -0.095   -1.347   -0.557   Cg   229      4vA   0.389000
  4866   H1    0.162   -1.684   -1.561   H2   229      4vA   0.000000
  4867   O5    0.934   -1.839    0.371   Os   229      4vA  -0.466000
  4868   C5    0.922   -1.309    1.771   Cg   229      4vA   0.112000
  4869   H5   -0.003   -1.653    2.236   H1   229      4vA   0.000000
  4870   C6    2.073   -1.922    2.595   Cg   229      4vA   0.362000
  4871  H61    2.008   -1.578    3.627   H1   229      4vA   0.000000
  4872  H62    1.996   -3.010    2.597   H1   229      4vA   0.000000
  4873   O6    3.349   -1.545    2.058   Oh   229      4vA  -0.711000
  4874  H6O    3.227   -0.683    1.626   Ho   229      4vA   0.424000
  4875   C4    0.876    0.238    1.775   Cg   229      4vA   0.326000
  4876   H4    0.730    0.588    2.798   H1   229      4vA   0.000000
  4877   C3   -0.278    0.764    0.889   Cg   229      4vA   0.176000
  4878   H3   -1.218    0.425    1.326   H1   229      4vA   0.000000
  4879   O3   -0.281    2.225    0.926   Oh   229      4vA  -0.678000
  4880  H3O   -1.010    2.574    0.402   Ho   229      4vA   0.425000
  4881   C2   -0.184    0.214   -0.559   Cg   229      4vA   0.399000
  4882   H2    0.739    0.594   -1.002   H1   229      4vA   0.000000
  4883   N2   -1.318    0.700   -1.381   Ng   229      4vA  -0.595000
  4884  H2N   -2.225    0.735   -0.943    H   229      4vA   0.238000
  4885  C2N   -1.243    0.825   -2.709    C   229      4vA   0.625000
  4886  O2N   -0.199    0.623   -3.321    O   229      4vA  -0.605000
  4887  CME   -2.538    1.245   -3.430   Cg   229      4vA   0.032000
  4888  H1M   -2.773    2.283   -3.189   Hc   229      4vA   0.000000
  4889  H2M   -2.415    1.151   -4.510   Hc   229      4vA   0.000000
  4890  H3M   -3.365    0.606   -3.117   Hc   229      4vA   0.000000
  4891   O4    2.129    0.778    1.284   Os   229      4vA  -0.453000
  4892   C1   -0.903   -1.176    0.539   Cg   230      4vB   0.305000
  4893   H1   -0.282   -1.554    1.354   H2   230      4vB   0.000000
  4894   C2   -0.616    0.351    0.326   Cg   230      4vB   0.544000
  4895   H2   -1.299    0.718   -0.441   H1   230      4vB   0.000000
  4896   N2   -0.822    1.111    1.580   Ng   230      4vB  -0.686000
  4897  H2N   -0.432    0.739    2.429    H   230      4vB   0.254000
  4898  C2N   -1.529    2.243    1.631    C   230      4vB   0.586000
  4899  CME   -1.641    2.918    3.014   Cg   230      4vB   0.056000
  4900  H1M   -0.766    3.547    3.183   Hc   230      4vB   0.000000
  4901  H2M   -2.537    3.538    3.056   Hc   230      4vB   0.000000
  4902  H3M   -1.700    2.167    3.805   Hc   230      4vB   0.000000
  4903  O2N   -2.055    2.735    0.637    O   230      4vB  -0.564000
  4904   C3    0.847    0.521   -0.184   Cg   230      4vB   0.152000
  4905   H3    1.522    0.159    0.595   H1   230      4vB   0.000000
  4906   O3    1.205    1.912   -0.454   Oh   230      4vB  -0.665000
  4907  H3O    2.151    2.058   -0.346   Ho   230      4vB   0.415000
  4908   C4    1.098   -0.311   -1.460   Cg   230      4vB   0.253000
  4909   H4    2.143   -0.209   -1.756   H1   230      4vB   0.000000
  4910   C5    0.778   -1.804   -1.227   Cg   230      4vB   0.136000
  4911   H5    1.485   -2.181   -0.485   H1   230      4vB   0.000000
  4912   C6    0.925   -2.653   -2.503   Cg   230      4vB   0.353000
  4913  H61    1.910   -2.503   -2.946   H1   230      4vB   0.000000
  4914  H62    0.168   -2.383   -3.239   H1   230      4vB   0.000000
  4915   O6    0.776   -4.039   -2.158   Oh   230      4vB  -0.714000
  4916  H6O   -0.091   -4.149   -1.756   Ho   230      4vB   0.427000
  4917   O5   -0.601   -1.958   -0.671   Os   230      4vB  -0.408000
  4918   O4    0.268    0.203   -2.525   Os   230      4vB  -0.444000
  4919   C1   -1.220   -1.381   -0.726   Cg   231      4wA   0.462100
  4920   H1   -0.991   -1.769   -1.718   H2   231      4wA   0.000000
  4921   O5   -0.208   -1.876    0.217   Os   231      4wA  -0.541500
  4922   C5   -0.245   -1.356    1.619   Cg   231      4wA   0.242100
  4923   H5   -1.149   -1.758    2.080   H1   231      4wA   0.000000
  4924   C6    0.955   -1.911    2.417   Cg   231      4wA   0.299500
  4925  H61    0.806   -1.735    3.483   H1   231      4wA   0.000000
  4926  H62    1.029   -2.988    2.266   H1   231      4wA   0.000000
  4927   O6    2.200   -1.297    2.021   Oh   231      4wA  -0.661800
  4928  H6O    2.307   -0.456    2.475   Ho   231      4wA   0.395900
  4929   C4   -0.345    0.187    1.644   Cg   231      4wA   0.321300
  4930   H4    0.619    0.615    1.366   H1   231      4wA   0.000000
  4931   C3   -1.420    0.732    0.669   Cg   231      4wA   0.252000
  4932   H3   -2.403    0.439    1.040   H1   231      4wA   0.000000
  4933   O3   -1.368    2.186    0.654   Oh   231      4wA  -0.698700
  4934  H3O   -1.335    2.518    1.559   Ho   231      4wA   0.415900
  4935   C2   -1.254    0.172   -0.765   Cg   231      4wA   0.275000
  4936   H2   -2.118    0.478   -1.358   H1   231      4wA   0.000000
  4937   N2   -0.050    0.718   -1.434   Ng   231      4wA  -0.475100
  4938  H2N    0.620    1.206   -0.861    H   231      4wA   0.214200
  4939  C2N    0.153    0.673   -2.753    C   231      4wA   0.590900
  4940  O2N   -0.629    0.113   -3.518    O   231      4wA  -0.575700
  4941  CME    1.443    1.347   -3.254   Cg   231      4wA  -0.034000
  4942  H1M    1.436    2.405   -2.986   Hc   231      4wA   0.000000
  4943  H2M    1.519    1.259   -4.339   Hc   231      4wA   0.000000
  4944  H3M    2.311    0.867   -2.800   Hc   231      4wA   0.000000
  4945   O4   -0.661    0.611    3.003   Os   231      4wA  -0.482100
  4946   C1   -0.541   -1.055    1.570   Cg   232      4wB   0.387000
  4947   H1    0.104   -1.395    2.381   H2   232      4wB   0.000000
  4948   C2   -0.280    0.449    1.264   Cg   232      4wB   0.294000
  4949   H2   -0.390    1.004    2.198   H1   232      4wB   0.000000
  4950   N2   -1.239    1.005    0.276   Ng   232      4wB  -0.558000
  4951  H2N   -1.609    0.374   -0.416    H   232      4wB   0.265000
  4952  C2N   -1.658    2.275    0.287    C   232      4wB   0.585000
  4953  CME   -2.709    2.669   -0.772   Cg   232      4wB   0.056000
  4954  H1M   -2.227    3.254   -1.555   Hc   232      4wB   0.000000
  4955  H2M   -3.494    3.269   -0.310   Hc   232      4wB   0.000000
  4956  H3M   -3.166    1.785   -1.223   Hc   232      4wB   0.000000
  4957  O2N   -1.201    3.092    1.084    O   232      4wB  -0.600000
  4958   C3    1.188    0.600    0.789   Cg   232      4wB   0.217000
  4959   H3    1.838    0.327    1.623   H1   232      4wB   0.000000
  4960   O3    1.483    1.982    0.432   Oh   232      4wB  -0.658000
  4961  H3O    0.886    2.586    0.905   Ho   232      4wB   0.413000
  4962   C4    1.507   -0.324   -0.415   Cg   232      4wB   0.277000
  4963   H4    0.959    0.027   -1.292   H1   232      4wB   0.000000
  4964   C5    1.126   -1.797   -0.126   Cg   232      4wB   0.321000
  4965   H5    1.786   -2.187    0.652   H1   232      4wB   0.000000
  4966   C6    1.252   -2.696   -1.373   Cg   232      4wB   0.247000
  4967  H61    2.278   -2.694   -1.741   H1   232      4wB   0.000000
  4968  H62    0.603   -2.328   -2.168   H1   232      4wB   0.000000
  4969   O6    0.876   -4.051   -1.055   Oh   232      4wB  -0.663000
  4970  H6O   -0.016   -4.051   -0.695   Ho   232      4wB   0.413000
  4971   O5   -0.282   -1.868    0.380   Os   232      4wB  -0.498000
  4972   O4    2.925   -0.252   -0.697   Os   232      4wB  -0.498000
  4973   C1   -0.258   -1.242   -1.200   Cg   233      4xA   0.482000
  4974   H1   -0.043   -1.559   -2.220   H2   233      4xA   0.000000
  4975   O5    0.749   -1.814   -0.305   Os   233      4xA  -0.588000
  4976   C5    0.727   -1.372    1.117   Cg   233      4xA   0.335000
  4977  H5A   -0.176   -1.758    1.592   H1   233      4xA   0.000000
  4978  H5E    1.586   -1.801    1.633   H1   233      4xA   0.000000
  4979   C4    0.765    0.163    1.218   Cg   233      4xA   0.247000
  4980   H4    1.743    0.516    0.888   H1   233      4xA   0.000000
  4981   C3   -0.339    0.795    0.338   Cg   233      4xA   0.359000
  4982   H3   -1.321    0.558    0.753   H1   233      4xA   0.000000
  4983   O3   -0.167    2.236    0.342   Oh   233      4xA  -0.712000
  4984  H3O   -0.702    2.590   -0.380   Ho   233      4xA   0.421000
  4985   C2   -0.269    0.308   -1.124   Cg   233      4xA   0.197000
  4986   H2    0.662    0.668   -1.564   H1   233      4xA   0.000000
  4987   O2   -1.376    0.864   -1.905   Oh   233      4xA  -0.656000
  4988  H2O   -2.157    0.305   -1.793   Ho   233      4xA   0.409000
  4989   O4    0.576    0.540    2.609   Os   233      4xA  -0.494000
  4990   C1   -1.155   -1.004    0.861   Cg   234      4xB   0.248000
  4991   H1   -0.511   -1.395    1.650   H2   234      4xB   0.000000
  4992   C2   -0.900    0.517    0.646   Cg   234      4xB   0.425000
  4993   H2   -1.668    0.922   -0.017   H1   234      4xB   0.000000
  4994   O2   -0.976    1.197    1.926   Oh   234      4xB  -0.699000
  4995  H2O   -1.794    0.909    2.349   Ho   234      4xB   0.398000
  4996   C3    0.498    0.767    0.032   Cg   234      4xB   0.228000
  4997   H3    1.261    0.522    0.774   H1   234      4xB   0.000000
  4998   O3    0.639    2.173   -0.329   Oh   234      4xB  -0.682000
  4999  H3O    0.464    2.706    0.459   Ho   234      4xB   0.427000
  5000   C4    0.723   -0.099   -1.228   Cg   234      4xB   0.286000
  5001   H4    0.062    0.237   -2.028   H1   234      4xB   0.000000
  5002   C5    0.454   -1.590   -0.946   Cg   234      4xB   0.303000
  5003  H5A    1.189   -1.986   -0.243   H1   234      4xB   0.000000
  5004  H5E    0.522   -2.166   -1.869   H1   234      4xB   0.000000
  5005   O5   -0.903   -1.755   -0.373   Os   234      4xB  -0.447000
  5006   O4    2.095    0.044   -1.665   Os   234      4xB  -0.487000
  5007   C1   -0.275   -1.532   -0.680   Cg   235      4yA   0.468000
  5008   H1   -0.016   -1.926   -1.663   H2   235      4yA   0.000000
  5009   O5    0.642   -2.109    0.302   Os   235      4yA  -0.568000
  5010   C5    0.641   -1.539    1.690   Cg   235      4yA   0.246000
  5011   H5   -0.316   -1.806    2.144   H1   235      4yA   0.000000
  5012   C6    1.750   -2.202    2.536   Cg   235      4yA   0.328000
  5013  H61    1.636   -3.286    2.503   H1   235      4yA   0.000000
  5014  H62    1.664   -1.889    3.576   H1   235      4yA   0.000000
  5015   O6    3.067   -1.859    2.053   Oh   235      4yA  -0.688000
  5016  H6O    3.729   -2.292    2.595   Ho   235      4yA   0.421000
  5017   C4    0.747    0.001    1.665   Cg   235      4yA   0.322000
  5018   H4    1.757    0.296    1.377   H1   235      4yA   0.000000
  5019   C3   -0.263    0.648    0.689   Cg   235      4yA   0.165000
  5020   H3   -1.274    0.519    1.081   H1   235      4yA   0.000000
  5021   O3    0.027    2.074    0.618   Oh   235      4yA  -0.630000
  5022  H3O    0.003    2.372   -0.312   Ho   235      4yA   0.413000
  5023   C2   -0.194    0.023   -0.724   Cg   235      4yA   0.245000
  5024   H2    0.778    0.278   -1.152   H1   235      4yA   0.000000
  5025   N2   -1.237    0.592   -1.617   Ng   235      4yA  -0.552000
  5026  H2N   -2.098    0.069   -1.679    H   235      4yA   0.236000
  5027  C2N   -1.131    1.755   -2.269    C   235      4yA   0.588000
  5028  O2N   -0.166    2.496   -2.101    O   235      4yA  -0.579000
  5029  CME   -2.279    2.130   -3.230   Cg   235      4yA   0.063000
  5030  H1M   -2.749    3.053   -2.890   Hc   235      4yA   0.000000
  5031  H2M   -1.877    2.284   -4.233   Hc   235      4yA   0.000000
  5032  H3M   -3.036    1.344   -3.272   Hc   235      4yA   0.000000
  5033   O4    0.470    0.505    2.993   Os   235      4yA  -0.478000
  5034   C1   -0.870   -1.124    0.512   Cg   236      4yB   0.287000
  5035   H1   -0.254   -1.524    1.319   H2   236      4yB   0.000000
  5036   C2   -0.534    0.388    0.282   Cg   236      4yB   0.480000
  5037   H2   -1.216    0.765   -0.483   H1   236      4yB   0.000000
  5038   N2   -0.708    1.170    1.531   Ng   236      4yB  -0.722000
  5039  H2N   -0.355    0.771    2.384    H   236      4yB   0.300000
  5040  C2N   -1.477    2.261    1.610    C   236      4yB   0.648000
  5041  CME   -1.633    2.891    3.008   Cg   236      4yB   0.034000
  5042  H1M   -0.775    3.532    3.213   Hc   236      4yB   0.000000
  5043  H2M   -2.543    3.493    3.048   Hc   236      4yB   0.000000
  5044  H3M   -1.695    2.116    3.775   Hc   236      4yB   0.000000
  5045  O2N   -2.001    2.761    0.621    O   236      4yB  -0.576000
  5046   C3    0.917    0.522   -0.258   Cg   236      4yB   0.180000
  5047   H3    1.611    0.199    0.521   H1   236      4yB   0.000000
  5048   O3    1.250    1.901   -0.612   Oh   236      4yB  -0.681000
  5049  H3O    1.270    2.459    0.174   Ho   236      4yB   0.423000
  5050   C4    1.123   -0.364   -1.509   Cg   236      4yB   0.302000
  5051   H4    0.501    0.007   -2.326   H1   236      4yB   0.000000
  5052   C5    0.776   -1.840   -1.227   Cg   236      4yB   0.208000
  5053   H5    1.452   -2.225   -0.460   H1   236      4yB   0.000000
  5054   C6    0.900   -2.726   -2.480   Cg   236      4yB   0.289000
  5055  H61    1.921   -2.712   -2.860   H1   236      4yB   0.000000
  5056  H62    0.236   -2.364   -3.267   H1   236      4yB   0.000000
  5057   O6    0.545   -4.082   -2.153   Oh   236      4yB  -0.689000
  5058  H6O   -0.331   -4.079   -1.759   Ho   236      4yB   0.424000
  5059   O5   -0.619   -1.912   -0.701   Os   236      4yB  -0.433000
  5060   O4    2.509   -0.284   -1.905   Os   236      4yB  -0.474000
  5061   C1   -0.705   -0.869    1.484   Cg   237      4zA   0.398000
  5062   H1   -1.562   -1.067    2.127   H2   237      4zA   0.000000
  5063   O5   -0.962   -1.446    0.170   Os   237      4zA  -0.544000
  5064   C5    0.041   -1.184   -0.935   Cg   237      4zA   0.187000
  5065   H5    0.975   -1.640   -0.601   H1   237      4zA   0.000000
  5066   C6   -0.229   -1.856   -2.358    C   237      4zA   0.798000
  5067  O6B   -1.055   -2.795   -2.427   O2   237      4zA  -0.787000
  5068  O6A    0.448   -1.444   -3.336   O2   237      4zA  -0.787000
  5069   C4    0.310    0.337   -1.063   Cg   237      4zA   0.193000
  5070   H4   -0.554    0.802   -1.540   H1   237      4zA   0.000000
  5071   C3    0.574    1.029    0.305   Cg   237      4zA   0.300000
  5072   H3    1.562    0.736    0.666   H1   237      4zA   0.000000
  5073   O3    0.547    2.479    0.153   Oh   237      4zA  -0.743000
  5074  H3O    0.599    2.856    1.037   Ho   237      4zA   0.439000
  5075   C2   -0.476    0.662    1.380   Cg   237      4zA   0.326000
  5076   H2   -1.427    1.117    1.101   H1   237      4zA   0.000000
  5077   O2   -0.085    1.204    2.685   Oh   237      4zA  -0.732000
  5078  H2O    0.531    0.575    3.081   Ho   237      4zA   0.406000
  5079   O4    1.465    0.503   -1.926   Os   237      4zA  -0.454000
  5080   C1   -1.385   -0.658    1.160   Cg   238      4zB   0.251000
  5081   H1   -0.790   -1.069    1.977   H2   238      4zB   0.000000
  5082   C2   -1.106    0.862    0.983   Cg   238      4zB   0.411000
  5083   H2   -1.842    1.283    0.294   H1   238      4zB   0.000000
  5084   O2   -1.275    1.487    2.289   Oh   238      4zB  -0.740000
  5085  H2O   -2.131    1.196    2.616   Ho   238      4zB   0.422000
  5086   C3    0.319    1.113    0.425   Cg   238      4zB   0.266000
  5087   H3    1.046    0.894    1.209   H1   238      4zB   0.000000
  5088   O3    0.482    2.504    0.015   Oh   238      4zB  -0.701000
  5089  H3O    1.333    2.543   -0.441   Ho   238      4zB   0.403000
  5090   C4    0.633    0.226   -0.809   Cg   238      4zB   0.267000
  5091   H4    0.039    0.568   -1.659   H1   238      4zB   0.000000
  5092   C5    0.329   -1.268   -0.578   Cg   238      4zB   0.075000
  5093   H5    0.988   -1.627    0.216   H1   238      4zB   0.000000
  5094   C6    0.701   -2.130   -1.854    C   238      4zB   0.893000
  5095  O6A   -0.068   -3.061   -2.185   O2   238      4zB  -0.818000
  5096  O6B    1.770   -1.845   -2.452   O2   238      4zB  -0.818000
  5097   O5   -1.078   -1.390   -0.065   Os   238      4zB  -0.413000
  5098   O4    2.035    0.374   -1.140   Os   238      4zB  -0.498000
  5099   C1   -0.453   -1.758    0.735   Cg   239      6eA   0.480000
  5100   H1   -1.235   -2.323    1.244   H2   239      6eA   0.000000
  5101   O5   -1.046   -1.127   -0.468   Os   239      6eA  -0.587000
  5102   C5   -0.241   -0.128   -1.216   Cg   239      6eA   0.374000
  5103   H5    0.658   -0.616   -1.598   H1   239      6eA   0.000000
  5104   C4    0.166    0.983   -0.229   Cg   239      6eA   0.261000
  5105   H4   -0.737    1.501    0.100   H1   239      6eA   0.000000
  5106   O4    1.004    1.945   -0.894   Oh   239      6eA  -0.721000
  5107  H4O    1.817    1.519   -1.176   Ho   239      6eA   0.415000
  5108   C3    0.897    0.447    1.021   Cg   239      6eA   0.328000
  5109   H3    1.065    1.261    1.729   H1   239      6eA   0.000000
  5110   O3    2.180   -0.095    0.648   Oh   239      6eA  -0.714000
  5111  H3O    2.629   -0.422    1.431   Ho   239      6eA   0.420000
  5112   C2    0.110   -0.691    1.700   Cg   239      6eA   0.179000
  5113   H2    0.729   -1.168    2.463   H1   239      6eA   0.000000
  5114   O2   -1.015   -0.095    2.367   Oh   239      6eA  -0.690000
  5115  H2O   -1.514   -0.777    2.823   Ho   239      6eA   0.447000
  5116   C6   -1.087    0.364   -2.398   Cg   239      6eA   0.259000
  5117  H61   -2.042    0.761   -2.050   H1   239      6eA   0.000000
  5118  H62   -0.563    1.151   -2.941   H1   239      6eA   0.000000
  5119   O6   -1.322   -0.733   -3.291   Os   239      6eA  -0.451000
  5120   C1   -1.533   -0.456    1.301   Cg   240      6eB   0.488000
  5121   H1   -0.978   -0.857    2.150   H2   240      6eB   0.000000
  5122   C2   -1.221    1.060    1.106   Cg   240      6eB   0.184000
  5123   H2   -1.409    1.592    2.040   H1   240      6eB   0.000000
  5124   O2   -2.040    1.671    0.059   Oh   240      6eB  -0.697000
  5125  H2O   -2.969    1.511    0.268   Ho   240      6eB   0.432000
  5126   C3    0.256    1.217    0.702   Cg   240      6eB   0.315000
  5127   H3    0.468    2.268    0.498   H1   240      6eB   0.000000
  5128   O3    1.081    0.801    1.824   Oh   240      6eB  -0.681000
  5129  H3O    2.002    0.780    1.534   Ho   240      6eB   0.403000
  5130   C4    0.587    0.375   -0.562   Cg   240      6eB   0.320000
  5131   H4    0.004    0.759   -1.401   H1   240      6eB   0.000000
  5132   O4    1.996    0.518   -0.903   Oh   240      6eB  -0.724000
  5133  H4O    2.143    1.354   -1.359   Ho   240      6eB   0.420000
  5134   C5    0.226   -1.116   -0.351   Cg   240      6eB   0.257000
  5135   H5    0.868   -1.533    0.427   H1   240      6eB   0.000000
  5136   O5   -1.200   -1.233    0.101   Os   240      6eB  -0.532000
  5137   C6    0.417   -1.944   -1.637   Cg   240      6eB   0.278000
  5138  H61    1.455   -1.905   -1.968   H1   240      6eB   0.000000
  5139  H62   -0.212   -1.548   -2.435   H1   240      6eB   0.000000
  5140   O6    0.058   -3.316   -1.396   Os   240      6eB  -0.463000
  5141   C1   -0.761   -0.781    1.680   Cg   241      6gA   0.509000
  5142   H1   -1.638   -0.941    2.308   H2   241      6gA   0.000000
  5143   O5   -0.991   -1.404    0.377   Os   241      6gA  -0.574000
  5144   C5    0.029   -1.176   -0.699   Cg   241      6gA   0.283000
  5145   H5    0.972   -1.624   -0.378   H1   241      6gA   0.000000
  5146   C4    0.253    0.339   -0.886   Cg   241      6gA   0.254000
  5147   H4   -0.646    0.787   -1.315   H1   241      6gA   0.000000
  5148   O4    1.360    0.544   -1.801   Oh   241      6gA  -0.710000
  5149  H4O    1.558    1.491   -1.804   Ho   241      6gA   0.436000
  5150   C3    0.580    1.028    0.460   Cg   241      6gA   0.286000
  5151   H3    1.550    0.683    0.822   H1   241      6gA   0.000000
  5152   O3    0.648    2.462    0.242   Oh   241      6gA  -0.699000
  5153  H3O    0.616    2.888    1.110   Ho   241      6gA   0.427000
  5154   C2   -0.493    0.745    1.533   Cg   241      6gA   0.246000
  5155   H2   -1.426    1.216    1.219   H1   241      6gA   0.000000
  5156   O2   -0.098    1.347    2.809   Oh   241      6gA  -0.713000
  5157  H2O    0.499    0.744    3.273   Ho   241      6gA   0.437000
  5158   C6   -0.426   -1.873   -2.002   Cg   241      6gA   0.276000
  5159  H61   -1.463   -1.616   -2.220   H1   241      6gA   0.000000
  5160  H62    0.186   -1.551   -2.844   H1   241      6gA   0.000000
  5161   O6   -0.306   -3.307   -1.885   Os   241      6gA  -0.458000
  5162   C1   -1.448   -0.508    1.261   Cg   242      6gB   0.384000
  5163   H1   -0.874   -0.908    2.099   H2   242      6gB   0.000000
  5164   C2   -1.097    0.984    1.007   Cg   242      6gB   0.310000
  5165   H2   -1.795    1.398    0.276   H1   242      6gB   0.000000
  5166   O2   -1.211    1.744    2.246   Oh   242      6gB  -0.718000
  5167  H2O   -2.095    1.597    2.606   Ho   242      6gB   0.437000
  5168   C3    0.346    1.113    0.469   Cg   242      6gB   0.284000
  5169   H3    1.047    0.852    1.264   H1   242      6gB   0.000000
  5170   O3    0.588    2.492    0.074   Oh   242      6gB  -0.709000
  5171  H3O    0.348    3.053    0.824   Ho   242      6gB   0.432000
  5172   C4    0.598    0.193   -0.751   Cg   242      6gB   0.276000
  5173   H4    0.004    0.543   -1.597   H1   242      6gB   0.000000
  5174   O4    1.999    0.254   -1.108   Oh   242      6gB  -0.714000
  5175  H4O    2.240    1.188   -1.180   Ho   242      6gB   0.440000
  5176   C5    0.225   -1.270   -0.435   Cg   242      6gB   0.225000
  5177   H5    0.882   -1.645    0.353   H1   242      6gB   0.000000
  5178   O5   -1.183   -1.315    0.066   Os   242      6gB  -0.471000
  5179   C6    0.357   -2.191   -1.664   Cg   242      6gB   0.282000
  5180  H61    1.387   -2.210   -2.020   H1   242      6gB   0.000000
  5181  H62   -0.280   -1.833   -2.474   H1   242      6gB   0.000000
  5182   O6   -0.039   -3.531   -1.315   Os   242      6gB  -0.458000
  5183   C1   -0.570   -1.702    0.715   Cg   243      6kA   0.473000
  5184   H1   -1.360   -2.235    1.244   H2   243      6kA   0.000000
  5185   O5   -1.171   -1.002   -0.443   Os   243      6kA  -0.540000
  5186   C5   -0.294   -0.079   -1.215   Cg   243      6kA   0.301000
  5187   H5    0.537   -0.661   -1.620   H1   243      6kA   0.000000
  5188   C4    0.308    0.991   -0.271   Cg   243      6kA   0.196000
  5189   H4    1.037    1.589   -0.819   H1   243      6kA   0.000000
  5190   O4   -0.739    1.871    0.180   Oh   243      6kA  -0.712000
  5191  H4O   -1.158    2.284   -0.579   Ho   243      6kA   0.420000
  5192   C3    0.970    0.386    0.983   Cg   243      6kA   0.354000
  5193   H3    1.226    1.175    1.691   H1   243      6kA   0.000000
  5194   O3    2.191   -0.248    0.556   Oh   243      6kA  -0.744000
  5195  H3O    2.638   -0.625    1.317   Ho   243      6kA   0.436000
  5196   C2    0.042   -0.646    1.661   Cg   243      6kA   0.281000
  5197   H2   -0.795   -0.086    2.079   H1   243      6kA   0.000000
  5198   O2    0.704   -1.277    2.772   Oh   243      6kA  -0.716000
  5199  H2O    1.442   -1.800    2.449   Ho   243      6kA   0.427000
  5200   C6   -1.089    0.482   -2.403   Cg   243      6kA   0.287000
  5201  H61   -2.003    0.970   -2.062   H1   243      6kA   0.000000
  5202  H62   -0.489    1.210   -2.948   H1   243      6kA   0.000000
  5203   O6   -1.428   -0.596   -3.286   Os   243      6kA  -0.463000
  5204   C1   -1.351   -0.558    1.220   Cg   244      6kB   0.449000
  5205   H1   -0.769   -0.989    2.036   H2   244      6kB   0.000000
  5206   C2   -1.046    0.960    1.050   Cg   244      6kB   0.308000
  5207   H2   -1.737    1.379    0.317   H1   244      6kB   0.000000
  5208   O2   -1.224    1.692    2.303   Oh   244      6kB  -0.710000
  5209  H2O   -2.124    1.535    2.617   Ho   244      6kB   0.426000
  5210   C3    0.398    1.166    0.537   Cg   244      6kB   0.253000
  5211   H3    0.559    2.226    0.336   H1   244      6kB   0.000000
  5212   O3    1.355    0.753    1.548   Oh   244      6kB  -0.710000
  5213  H3O    1.125    1.214    2.367   Ho   244      6kB   0.442000
  5214   C4    0.678    0.352   -0.746   Cg   244      6kB   0.217000
  5215   H4    1.736    0.429   -1.000   H1   244      6kB   0.000000
  5216   O4   -0.082    0.932   -1.843   Oh   244      6kB  -0.700000
  5217  H4O    0.322    1.758   -2.131   Ho   244      6kB   0.425000
  5218   C5    0.316   -1.145   -0.549   Cg   244      6kB   0.303000
  5219   H5    1.002   -1.560    0.192   H1   244      6kB   0.000000
  5220   O5   -1.078   -1.292   -0.018   Os   244      6kB  -0.514000
  5221   C6    0.464   -1.976   -1.839   Cg   244      6kB   0.259000
  5222  H61    1.463   -1.847   -2.255   H1   244      6kB   0.000000
  5223  H62   -0.262   -1.655   -2.586   H1   244      6kB   0.000000
  5224   O6    0.256   -3.374   -1.556   Os   244      6kB  -0.448000
  5225   C1   -0.594   -1.751    0.648   Cg   245      6lA   0.465000
  5226   H1   -1.409   -2.266    1.157   H2   245      6lA   0.000000
  5227   O5   -1.147   -1.043   -0.530   Os   245      6lA  -0.527000
  5228   C5   -0.219   -0.153   -1.283   Cg   245      6lA   0.216000
  5229   H5    0.617   -0.755   -1.644   H1   245      6lA   0.000000
  5230   C4    0.355    0.913   -0.324   Cg   245      6lA   0.204000
  5231   H4    1.095    1.519   -0.849   H1   245      6lA   0.000000
  5232   O4   -0.727    1.769    0.105   Oh   245      6lA  -0.673000
  5233  H4O   -1.131    2.183   -0.661   Ho   245      6lA   0.436000
  5234   C3    1.007    0.239    0.902   Cg   245      6lA   0.253000
  5235   H3    1.879   -0.324    0.566   H1   245      6lA   0.000000
  5236   O3    1.457    1.256    1.817   Oh   245      6lA  -0.701000
  5237  H3O    1.871    0.842    2.577   Ho   245      6lA   0.433000
  5238   C2    0.030   -0.716    1.614   Cg   245      6lA   0.339000
  5239   H2   -0.781   -0.133    2.053   H1   245      6lA   0.000000
  5240   O2    0.704   -1.406    2.683   Oh   245      6lA  -0.724000
  5241  H2O    1.411   -1.945    2.319   Ho   245      6lA   0.431000
  5242   C6   -0.953    0.408   -2.509   Cg   245      6lA   0.308000
  5243  H61   -1.870    0.920   -2.213   H1   245      6lA   0.000000
  5244  H62   -0.317    1.117   -3.038   H1   245      6lA   0.000000
  5245   O6   -1.278   -0.675   -3.391   Os   245      6lA  -0.460000
  5246   C1   -1.327   -0.557    1.300   Cg   246      6lB   0.374000
  5247   H1   -0.756   -0.955    2.140   H2   246      6lB   0.000000
  5248   C2   -0.976    0.943    1.065   Cg   246      6lB   0.357000
  5249   H2   -1.678    1.375    0.349   H1   246      6lB   0.000000
  5250   O2   -1.074    1.677    2.322   Oh   246      6lB  -0.726000
  5251  H2O   -1.958    1.530    2.680   Ho   246      6lB   0.432000
  5252   C3    0.468    1.073    0.526   Cg   246      6lB   0.259000
  5253   H3    1.163    0.750    1.304   H1   246      6lB   0.000000
  5254   O3    0.776    2.458    0.203   Oh   246      6lB  -0.694000
  5255  H3O    0.572    2.990    0.984   Ho   246      6lB   0.433000
  5256   C4    0.707    0.196   -0.725   Cg   246      6lB   0.203000
  5257   H4    1.757    0.261   -1.015   H1   246      6lB   0.000000
  5258   O4   -0.102    0.684   -1.824   Oh   246      6lB  -0.664000
  5259  H4O    0.067    1.633   -1.903   Ho   246      6lB   0.437000
  5260   C5    0.348   -1.277   -0.430   Cg   246      6lB   0.140000
  5261   H5    1.033   -1.637    0.340   H1   246      6lB   0.000000
  5262   O5   -1.043   -1.369    0.109   Os   246      6lB  -0.402000
  5263   C6    0.491   -2.192   -1.659   Cg   246      6lB   0.319000
  5264  H61    1.488   -2.096   -2.089   H1   246      6lB   0.000000
  5265  H62   -0.242   -1.933   -2.424   H1   246      6lB   0.000000
  5266   O6    0.287   -3.556   -1.254   Os   246      6lB  -0.468000
  5267   C1   -0.819   -0.894    1.737   Cg   247      6mA   0.433000
  5268   H1   -1.752   -1.073    2.271   H2   247      6mA   0.000000
  5269   O5   -0.901   -1.529    0.414   Os   247      6mA  -0.507000
  5270   C5    0.173   -1.234   -0.585   Cg   247      6mA   0.276000
  5271   H5    1.102   -1.680   -0.224   H1   247      6mA   0.000000
  5272   C4    0.386    0.291   -0.713   Cg   247      6mA   0.326000
  5273   H4   -0.480    0.749   -1.192   H1   247      6mA   0.000000
  5274   O4    1.559    0.534   -1.535   Oh   247      6mA  -0.733000
  5275  H4O    1.732    1.484   -1.514   Ho   247      6mA   0.438000
  5276   C3    0.615    0.928    0.680   Cg   247      6mA   0.252000
  5277   H3    1.527    0.508    1.111   H1   247      6mA   0.000000
  5278   O3    0.808    2.372    0.566   Oh   247      6mA  -0.696000
  5279  H3O    1.226    2.708    1.367   Ho   247      6mA   0.431000
  5280   C2   -0.561    0.637    1.639   Cg   247      6mA   0.245000
  5281   H2   -0.321    1.027    2.630   H1   247      6mA   0.000000
  5282   O2   -1.762    1.317    1.167   Oh   247      6mA  -0.717000
  5283  H2O   -1.528    2.221    0.922   Ho   247      6mA   0.446000
  5284   C6   -0.191   -1.886   -1.937   Cg   247      6mA   0.266000
  5285  H61   -1.210   -1.618   -2.219   H1   247      6mA   0.000000
  5286  H62    0.478   -1.537   -2.723   H1   247      6mA   0.000000
  5287   O6   -0.080   -3.324   -1.863   Os   247      6mA  -0.460000
  5288   C1   -1.431   -0.530    1.448   Cg   248      6mB   0.314000
  5289   H1   -0.797   -0.831    2.283   H2   248      6mB   0.000000
  5290   C2   -1.206    0.972    1.120   Cg   248      6mB   0.241000
  5291   H2   -1.425    1.580    1.999   H1   248      6mB   0.000000
  5292   O2   -2.087    1.376    0.030   Oh   248      6mB  -0.664000
  5293  H2O   -2.990    1.163    0.292   Ho   248      6mB   0.431000
  5294   C3    0.278    1.138    0.717   Cg   248      6mB   0.263000
  5295   H3    0.893    0.789    1.549   H1   248      6mB   0.000000
  5296   O3    0.603    2.544    0.513   Oh   248      6mB  -0.692000
  5297  H3O    1.544    2.682    0.660   Ho   248      6mB   0.430000
  5298   C4    0.604    0.278   -0.535   Cg   248      6mB   0.349000
  5299   H4    0.029    0.633   -1.391   H1   248      6mB   0.000000
  5300   O4    2.017    0.389   -0.848   Oh   248      6mB  -0.746000
  5301  H4O    2.160    1.219   -1.316   Ho   248      6mB   0.443000
  5302   C5    0.280   -1.213   -0.265   Cg   248      6mB   0.206000
  5303   H5    0.979   -1.594    0.482   H1   248      6mB   0.000000
  5304   O5   -1.106   -1.367    0.284   Os   248      6mB  -0.393000
  5305   C6    0.409   -2.067   -1.539   Cg   248      6mB   0.273000
  5306  H61    1.422   -2.010   -1.937   H1   248      6mB   0.000000
  5307  H62   -0.282   -1.711   -2.305   H1   248      6mB   0.000000
  5308   O6    0.107   -3.442   -1.239   Os   248      6mB  -0.455000
  5309   C1   -0.643   -1.772    0.738   Cg   249      6nA   0.478000
  5310   H1   -1.433   -2.356    1.210   H2   249      6nA   0.000000
  5311   O5   -1.204   -1.111   -0.462   Os   249      6nA  -0.611000
  5312   C5   -0.377   -0.090   -1.163   Cg   249      6nA   0.404000
  5313   H5    0.512   -0.580   -1.568   H1   249      6nA   0.000000
  5314   C4    0.060    0.979   -0.137   Cg   249      6nA   0.167000
  5315   H4   -0.826    1.524    0.191   H1   249      6nA   0.000000
  5316   O4    0.945    1.922   -0.769   Oh   249      6nA  -0.733000
  5317  H4O    1.733    1.466   -1.074   Ho   249      6nA   0.444000
  5318   C3    0.750    0.394    1.112   Cg   249      6nA   0.330000
  5319   H3    0.936    1.184    1.841   H1   249      6nA   0.000000
  5320   O3    2.012   -0.204    0.740   Oh   249      6nA  -0.714000
  5321  H3O    2.603    0.477    0.409   Ho   249      6nA   0.441000
  5322   C2   -0.170   -0.681    1.724   Cg   249      6nA   0.228000
  5323   H2   -1.066   -0.167    2.074   H1   249      6nA   0.000000
  5324   O2    0.442   -1.274    2.883   Oh   249      6nA  -0.668000
  5325  H2O    1.241   -1.737    2.621   Ho   249      6nA   0.415000
  5326   C6   -1.212    0.470   -2.322   Cg   249      6nA   0.280000
  5327  H61   -2.156    0.876   -1.956   H1   249      6nA   0.000000
  5328  H62   -0.670    1.264   -2.835   H1   249      6nA   0.000000
  5329   O6   -1.479   -0.584   -3.258   Os   249      6nA  -0.461000
  5330   C1   -1.458   -0.475    1.169   Cg   250      6nB   0.422000
  5331   H1   -0.876   -0.880    1.999   H2   250      6nB   0.000000
  5332   C2   -1.154    1.038    0.954   Cg   250      6nB   0.301000
  5333   H2   -1.855    1.439    0.217   H1   250      6nB   0.000000
  5334   O2   -1.315    1.801    2.186   Oh   250      6nB  -0.703000
  5335  H2O   -2.221    1.684    2.500   Ho   250      6nB   0.424000
  5336   C3    0.279    1.240    0.417   Cg   250      6nB   0.234000
  5337   H3    0.438    2.297    0.194   H1   250      6nB   0.000000
  5338   O3    1.244    0.831    1.431   Oh   250      6nB  -0.615000
  5339  H3O    0.981    1.243    2.265   Ho   250      6nB   0.389000
  5340   C4    0.484    0.401   -0.866   Cg   250      6nB   0.286000
  5341   H4   -0.213    0.753   -1.628   H1   250      6nB   0.000000
  5342   O4    1.827    0.600   -1.367   Oh   250      6nB  -0.707000
  5343  H4O    2.425    0.645   -0.610   Ho   250      6nB   0.430000
  5344   C5    0.215   -1.100   -0.605   Cg   250      6nB   0.198000
  5345   H5    0.925   -1.468    0.137   H1   250      6nB   0.000000
  5346   O5   -1.171   -1.246   -0.049   Os   250      6nB  -0.507000
  5347   C6    0.354   -1.960   -1.876   Cg   250      6nB   0.313000
  5348  H61    1.368   -1.899   -2.273   H1   250      6nB   0.000000
  5349  H62   -0.340   -1.617   -2.643   H1   250      6nB   0.000000
  5350   O6    0.061   -3.330   -1.553   Os   250      6nB  -0.465000
  5351   C1   -0.436   -1.818    0.648   Cg   251      6tA   0.456000
  5352   H1   -1.265   -2.329    1.140   H2   251      6tA   0.000000
  5353   O5   -0.962   -1.127   -0.556   Os   251      6tA  -0.480000
  5354   C5   -0.038   -0.225   -1.296   Cg   251      6tA   0.157000
  5355   H5    0.817   -0.814   -1.632   H1   251      6tA   0.000000
  5356   C4    0.496    0.864   -0.341   Cg   251      6tA   0.434000
  5357   H4    1.253    1.459   -0.853   H1   251      6tA   0.000000
  5358   O4   -0.592    1.733    0.039   Oh   251      6tA  -0.731000
  5359  H4O   -0.966    2.139   -0.746   Ho   251      6tA   0.417000
  5360   C3    1.113    0.203    0.910   Cg   251      6tA   0.124000
  5361   H3    1.989   -0.352    0.571   H1   251      6tA   0.000000
  5362   O3    1.591    1.201    1.829   Oh   251      6tA  -0.687000
  5363  H3O    2.018    0.772    2.574   Ho   251      6tA   0.442000
  5364   C2    0.195   -0.810    1.630   Cg   251      6tA   0.245000
  5365   H2    0.762   -1.338    2.398   H1   251      6tA   0.000000
  5366   O2   -0.898   -0.127    2.272   Oh   251      6tA  -0.655000
  5367  H2O   -1.459   -0.768    2.716   Ho   251      6tA   0.436000
  5368   C6   -0.759    0.306   -2.543   Cg   251      6tA   0.304000
  5369  H61   -1.694    0.799   -2.272   H1   251      6tA   0.000000
  5370  H62   -0.128    1.025   -3.066   H1   251      6tA   0.000000
  5371   O6   -1.038   -0.793   -3.421   Os   251      6tA  -0.462000
  5372   C1   -1.257   -1.313    0.888   Cg   252      6tB   0.306000
  5373   H1   -0.706   -2.255    0.880   H2   252      6tB   0.000000
  5374   C2   -0.531   -0.308    1.808   Cg   252      6tB   0.340000
  5375   H2   -0.414   -0.732    2.806   H1   252      6tB   0.000000
  5376   O2   -1.314    0.901    1.902   Oh   252      6tB  -0.637000
  5377  H2O   -2.184    0.692    2.252   Ho   252      6tB   0.397000
  5378   C3    0.856    0.014    1.207   Cg   252      6tB   0.174000
  5379   H3    1.442   -0.905    1.259   H1   252      6tB   0.000000
  5380   O3    1.546    0.986    2.012   Oh   252      6tB  -0.678000
  5381  H3O    1.061    1.815    1.995   Ho   252      6tB   0.425000
  5382   C4    0.837    0.447   -0.278   Cg   252      6tB   0.314000
  5383   H4    1.859    0.506   -0.655   H1   252      6tB   0.000000
  5384   O4    0.227    1.748   -0.409   Oh   252      6tB  -0.626000
  5385  H4O    0.224    2.009   -1.333   Ho   252      6tB   0.413000
  5386   C5    0.033   -0.570   -1.122   Cg   252      6tB   0.031000
  5387   H5    0.579   -1.516   -1.100   H1   252      6tB   0.000000
  5388   O5   -1.298   -0.790   -0.496   Os   252      6tB  -0.354000
  5389   C6   -0.168   -0.183   -2.594   Cg   252      6tB   0.349000
  5390  H61    0.792    0.044   -3.059   H1   252      6tB   0.000000
  5391  H62   -0.811    0.694   -2.681   H1   252      6tB   0.000000
  5392   O6   -0.772   -1.284   -3.284   Os   252      6tB  -0.454000
  5393   C1   -0.049   -1.437   -0.539   Cg   253      6vA   0.389000
  5394   H1    0.208   -1.773   -1.544   H2   253      6vA   0.000000
  5395   O5    0.979   -1.929    0.388   Os   253      6vA  -0.466000
  5396   C5    0.968   -1.398    1.788   Cg   253      6vA   0.112000
  5397   H5    0.043   -1.742    2.253   H1   253      6vA   0.000000
  5398   C4    0.922    0.149    1.792   Cg   253      6vA   0.326000
  5399   H4    0.776    0.499    2.815   H1   253      6vA   0.000000
  5400   O4    2.175    0.689    1.301   Oh   253      6vA  -0.701000
  5401  H4O    2.036    1.639    1.174   Ho   253      6vA   0.442000
  5402   C3   -0.232    0.674    0.906   Cg   253      6vA   0.176000
  5403   H3   -1.173    0.336    1.343   H1   253      6vA   0.000000
  5404   O3   -0.235    2.136    0.944   Oh   253      6vA  -0.678000
  5405  H3O   -0.964    2.485    0.419   Ho   253      6vA   0.425000
  5406   C2   -0.138    0.125   -0.541   Cg   253      6vA   0.399000
  5407   H2    0.785    0.505   -0.984   H1   253      6vA   0.000000
  5408   N2   -1.273    0.611   -1.363   Ng   253      6vA  -0.595000
  5409  H2N   -2.179    0.646   -0.926    H   253      6vA   0.238000
  5410  C2N   -1.197    0.736   -2.691    C   253      6vA   0.625000
  5411  O2N   -0.153    0.534   -3.303    O   253      6vA  -0.605000
  5412  CME   -2.493    1.155   -3.413   Cg   253      6vA   0.032000
  5413  H1M   -2.727    2.193   -3.172   Hc   253      6vA   0.000000
  5414  H2M   -2.369    1.062   -4.493   Hc   253      6vA   0.000000
  5415  H3M   -3.320    0.517   -3.099   Hc   253      6vA   0.000000
  5416   C6    2.119   -2.012    2.612   Cg   253      6vA   0.362000
  5417  H61    2.054   -1.667    3.644   H1   253      6vA   0.000000
  5418  H62    2.042   -3.099    2.614   H1   253      6vA   0.000000
  5419   O6    3.395   -1.634    2.076   Os   253      6vA  -0.481000
  5420   C1   -0.917   -1.373    0.566   Cg   254      6vB   0.305000
  5421   H1   -0.297   -1.751    1.381   H2   254      6vB   0.000000
  5422   C2   -0.630    0.154    0.353   Cg   254      6vB   0.544000
  5423   H2   -1.313    0.521   -0.414   H1   254      6vB   0.000000
  5424   N2   -0.836    0.914    1.607   Ng   254      6vB  -0.686000
  5425  H2N   -0.446    0.542    2.456    H   254      6vB   0.254000
  5426  C2N   -1.543    2.046    1.658    C   254      6vB   0.586000
  5427  CME   -1.655    2.721    3.041   Cg   254      6vB   0.056000
  5428  H1M   -0.780    3.350    3.210   Hc   254      6vB   0.000000
  5429  H2M   -2.552    3.341    3.083   Hc   254      6vB   0.000000
  5430  H3M   -1.714    1.970    3.832   Hc   254      6vB   0.000000
  5431  O2N   -2.069    2.538    0.664    O   254      6vB  -0.564000
  5432   C3    0.832    0.324   -0.157   Cg   254      6vB   0.152000
  5433   H3    1.508   -0.038    0.622   H1   254      6vB   0.000000
  5434   O3    1.191    1.715   -0.427   Oh   254      6vB  -0.665000
  5435  H3O    2.136    1.861   -0.319   Ho   254      6vB   0.415000
  5436   C4    1.083   -0.508   -1.433   Cg   254      6vB   0.253000
  5437   H4    2.128   -0.406   -1.729   H1   254      6vB   0.000000
  5438   O4    0.253    0.006   -2.498   Oh   254      6vB  -0.690000
  5439  H4O    0.278    0.973   -2.457   Ho   254      6vB   0.440000
  5440   C5    0.764   -2.001   -1.200   Cg   254      6vB   0.136000
  5441   H5    1.470   -2.378   -0.458   H1   254      6vB   0.000000
  5442   O5   -0.615   -2.155   -0.644   Os   254      6vB  -0.408000
  5443   C6    0.911   -2.850   -2.476   Cg   254      6vB   0.353000
  5444  H61    1.896   -2.700   -2.919   H1   254      6vB   0.000000
  5445  H62    0.154   -2.580   -3.212   H1   254      6vB   0.000000
  5446   O6    0.762   -4.236   -2.131   Os   254      6vB  -0.481000
  5447   C1   -1.077   -1.411   -0.755   Cg   255      6wA   0.462100
  5448   H1   -0.848   -1.799   -1.747   H2   255      6wA   0.000000
  5449   O5   -0.065   -1.905    0.189   Os   255      6wA  -0.541500
  5450   C5   -0.102   -1.386    1.590   Cg   255      6wA   0.242100
  5451   H5   -1.006   -1.788    2.052   H1   255      6wA   0.000000
  5452   C4   -0.202    0.158    1.615   Cg   255      6wA   0.321300
  5453   H4    0.762    0.585    1.337   H1   255      6wA   0.000000
  5454   O4   -0.518    0.581    2.974   Oh   255      6wA  -0.730500
  5455  H4O   -1.410    0.311    3.222   Ho   255      6wA   0.442400
  5456   C3   -1.277    0.703    0.641   Cg   255      6wA   0.252000
  5457   H3   -2.260    0.410    1.011   H1   255      6wA   0.000000
  5458   O3   -1.225    2.157    0.625   Oh   255      6wA  -0.698700
  5459  H3O   -1.192    2.488    1.531   Ho   255      6wA   0.415900
  5460   C2   -1.111    0.142   -0.794   Cg   255      6wA   0.275000
  5461   H2   -1.975    0.449   -1.387   H1   255      6wA   0.000000
  5462   N2    0.093    0.689   -1.462   Ng   255      6wA  -0.475100
  5463  H2N    0.763    1.176   -0.890    H   255      6wA   0.214200
  5464  C2N    0.296    0.643   -2.782    C   255      6wA   0.590900
  5465  O2N   -0.486    0.083   -3.547    O   255      6wA  -0.575700
  5466  CME    1.586    1.318   -3.282   Cg   255      6wA  -0.034000
  5467  H1M    1.579    2.375   -3.015   Hc   255      6wA   0.000000
  5468  H2M    1.662    1.230   -4.367   Hc   255      6wA   0.000000
  5469  H3M    2.454    0.837   -2.829   Hc   255      6wA   0.000000
  5470   C6    1.098   -1.940    2.389   Cg   255      6wA   0.299500
  5471  H61    0.949   -1.765    3.454   H1   255      6wA   0.000000
  5472  H62    1.172   -3.017    2.237   H1   255      6wA   0.000000
  5473   O6    2.343   -1.326    1.992   Os   255      6wA  -0.459900
  5474   C1   -0.659   -1.230    1.571   Cg   256      6wB   0.387000
  5475   H1   -0.014   -1.571    2.382   H2   256      6wB   0.000000
  5476   C2   -0.398    0.274    1.265   Cg   256      6wB   0.294000
  5477   H2   -0.508    0.828    2.199   H1   256      6wB   0.000000
  5478   N2   -1.357    0.830    0.277   Ng   256      6wB  -0.558000
  5479  H2N   -1.727    0.199   -0.415    H   256      6wB   0.265000
  5480  C2N   -1.776    2.099    0.289    C   256      6wB   0.585000
  5481  CME   -2.827    2.493   -0.771   Cg   256      6wB   0.056000
  5482  H1M   -2.345    3.078   -1.554   Hc   256      6wB   0.000000
  5483  H2M   -3.612    3.094   -0.309   Hc   256      6wB   0.000000
  5484  H3M   -3.284    1.610   -1.222   Hc   256      6wB   0.000000
  5485  O2N   -1.319    2.916    1.085    O   256      6wB  -0.600000
  5486   C3    1.070    0.424    0.790   Cg   256      6wB   0.217000
  5487   H3    1.720    0.151    1.624   H1   256      6wB   0.000000
  5488   O3    1.365    1.807    0.433   Oh   256      6wB  -0.658000
  5489  H3O    0.768    2.411    0.906   Ho   256      6wB   0.413000
  5490   C4    1.389   -0.499   -0.414   Cg   256      6wB   0.277000
  5491   H4    0.841   -0.149   -1.291   H1   256      6wB   0.000000
  5492   O4    2.807   -0.428   -0.696   Oh   256      6wB  -0.743000
  5493  H4O    3.051    0.509   -0.726   Ho   256      6wB   0.439000
  5494   C5    1.008   -1.972   -0.125   Cg   256      6wB   0.321000
  5495   H5    1.668   -2.362    0.653   H1   256      6wB   0.000000
  5496   O5   -0.400   -2.043    0.381   Os   256      6wB  -0.498000
  5497   C6    1.134   -2.871   -1.372   Cg   256      6wB   0.247000
  5498  H61    2.160   -2.869   -1.740   H1   256      6wB   0.000000
  5499  H62    0.485   -2.503   -2.167   H1   256      6wB   0.000000
  5500   O6    0.758   -4.226   -1.054   Os   256      6wB  -0.444000
  5501   C1   -0.152   -1.671   -0.692   Cg   257      6yA   0.468000
  5502   H1    0.107   -2.065   -1.674   H2   257      6yA   0.000000
  5503   O5    0.766   -2.248    0.291   Os   257      6yA  -0.568000
  5504   C5    0.764   -1.678    1.679   Cg   257      6yA   0.246000
  5505   H5   -0.193   -1.945    2.132   H1   257      6yA   0.000000
  5506   C4    0.870   -0.138    1.653   Cg   257      6yA   0.322000
  5507   H4    1.881    0.157    1.365   H1   257      6yA   0.000000
  5508   O4    0.593    0.366    2.982   Oh   257      6yA  -0.733000
  5509  H4O    0.525    1.327    2.894   Ho   257      6yA   0.449000
  5510   C3   -0.140    0.509    0.678   Cg   257      6yA   0.165000
  5511   H3   -1.151    0.380    1.069   H1   257      6yA   0.000000
  5512   O3    0.150    1.935    0.607   Oh   257      6yA  -0.630000
  5513  H3O    0.126    2.233   -0.323   Ho   257      6yA   0.413000
  5514   C2   -0.071   -0.116   -0.736   Cg   257      6yA   0.245000
  5515   H2    0.901    0.138   -1.163   H1   257      6yA   0.000000
  5516   N2   -1.114    0.452   -1.628   Ng   257      6yA  -0.552000
  5517  H2N   -1.975   -0.070   -1.691    H   257      6yA   0.236000
  5518  C2N   -1.007    1.616   -2.281    C   257      6yA   0.588000
  5519  O2N   -0.043    2.357   -2.113    O   257      6yA  -0.579000
  5520  CME   -2.156    1.991   -3.242   Cg   257      6yA   0.063000
  5521  H1M   -2.625    2.914   -2.902   Hc   257      6yA   0.000000
  5522  H2M   -1.754    2.145   -4.244   Hc   257      6yA   0.000000
  5523  H3M   -2.912    1.205   -3.284   Hc   257      6yA   0.000000
  5524   C6    1.873   -2.341    2.524   Cg   257      6yA   0.328000
  5525  H61    1.759   -3.425    2.492   H1   257      6yA   0.000000
  5526  H62    1.787   -2.029    3.565   H1   257      6yA   0.000000
  5527   O6    3.190   -1.998    2.041   Os   257      6yA  -0.461000
  5528   C1   -0.983   -1.299    0.521   Cg   258      6yB   0.287000
  5529   H1   -0.367   -1.699    1.327   H2   258      6yB   0.000000
  5530   C2   -0.648    0.213    0.291   Cg   258      6yB   0.480000
  5531   H2   -1.329    0.590   -0.475   H1   258      6yB   0.000000
  5532   N2   -0.821    0.995    1.540   Ng   258      6yB  -0.722000
  5533  H2N   -0.468    0.596    2.393    H   258      6yB   0.300000
  5534  C2N   -1.590    2.085    1.618    C   258      6yB   0.648000
  5535  CME   -1.747    2.716    3.016   Cg   258      6yB   0.034000
  5536  H1M   -0.888    3.357    3.222   Hc   258      6yB   0.000000
  5537  H2M   -2.656    3.317    3.056   Hc   258      6yB   0.000000
  5538  H3M   -1.808    1.941    3.783   Hc   258      6yB   0.000000
  5539  O2N   -2.114    2.585    0.629    O   258      6yB  -0.576000
  5540   C3    0.804    0.347   -0.250   Cg   258      6yB   0.180000
  5541   H3    1.498    0.024    0.529   H1   258      6yB   0.000000
  5542   O3    1.137    1.726   -0.603   Oh   258      6yB  -0.681000
  5543  H3O    1.157    2.284    0.182   Ho   258      6yB   0.423000
  5544   C4    1.010   -0.540   -1.501   Cg   258      6yB   0.302000
  5545   H4    0.388   -0.168   -2.318   H1   258      6yB   0.000000
  5546   O4    2.396   -0.460   -1.897   Oh   258      6yB  -0.716000
  5547  H4O    2.610    0.480   -1.977   Ho   258      6yB   0.436000
  5548   C5    0.663   -2.016   -1.218   Cg   258      6yB   0.208000
  5549   H5    1.339   -2.400   -0.451   H1   258      6yB   0.000000
  5550   O5   -0.732   -2.087   -0.692   Os   258      6yB  -0.433000
  5551   C6    0.787   -2.902   -2.472   Cg   258      6yB   0.289000
  5552  H61    1.808   -2.887   -2.851   H1   258      6yB   0.000000
  5553  H62    0.123   -2.540   -3.258   H1   258      6yB   0.000000
  5554   O6    0.432   -4.257   -2.145   Os   258      6yB  -0.459000
  5555   C2   -2.706   -0.316   -0.935   Cy   259      7sA   0.237000
  5556   C1   -2.197   -1.050   -2.308    C   259      7sA   0.789000
  5557  O1B   -2.337   -0.457   -3.406   O2   259      7sA  -0.761000
  5558  O1A   -1.569   -2.134   -2.162   O2   259      7sA  -0.761000
  5559   O6   -1.844   -0.598    0.175   Oy   259      7sA  -0.403000
  5560   C6   -0.473   -0.183    0.014   Cg   259      7sA   0.220000
  5561   H6   -0.113   -0.505   -0.963   H1   259      7sA   0.000000
  5562   C5   -0.442    1.360   -0.006   Cg   259      7sA   0.308000
  5563   H5   -0.811    1.728    0.953   H1   259      7sA   0.000000
  5564   N5    0.942    1.855   -0.215   Ng   259      7sA  -0.629000
  5565  H5N    1.298    1.855   -1.157    H   259      7sA   0.280000
  5566  C5N    1.770    2.178    0.784    C   259      7sA   0.632000
  5567  O5N    1.443    2.074    1.963    O   259      7sA  -0.593000
  5568  CME    3.173    2.668    0.376   Cg   259      7sA  -0.003000
  5569  H1M    3.850    1.815    0.315   Hc   259      7sA   0.000000
  5570  H2M    3.551    3.368    1.123   Hc   259      7sA   0.000000
  5571  H3M    3.143    3.173   -0.591   Hc   259      7sA   0.000000
  5572   C4   -1.402    1.860   -1.129   Cg   259      7sA   0.332000
  5573   H4   -0.964    1.616   -2.098   H1   259      7sA   0.000000
  5574   O4   -1.552    3.302   -1.056   Oh   259      7sA  -0.762000
  5575  H4O   -0.689    3.714   -1.118   Ho   259      7sA   0.415000
  5576   C3   -2.802    1.226   -1.056   Cg   259      7sA   0.006000
  5577  H3A   -3.335    1.639   -0.194   Hc   259      7sA   0.000000
  5578  H3E   -3.394    1.509   -1.929   Hc   259      7sA   0.000000
  5579   C7    0.416   -0.935    1.026   Cg   259      7sA   0.111000
  5580   H7    1.457   -0.757    0.752   H1   259      7sA   0.000000
  5581   C8    0.172   -2.471    0.997   Cg   259      7sA   0.492000
  5582   H8   -0.857   -2.691    1.287   H1   259      7sA   0.000000
  5583   O8    0.396   -2.964   -0.359   Oh   259      7sA  -0.739000
  5584  H8O   -0.341   -2.686   -0.948   Ho   259      7sA   0.412000
  5585   C9    1.136   -3.241    1.938   Cg   259      7sA   0.178000
  5586  H9R    2.167   -3.095    1.614   H1   259      7sA   0.000000
  5587  H9S    1.050   -2.862    2.957   H1   259      7sA   0.000000
  5588   O9    0.849   -4.661    1.955   Oh   259      7sA  -0.689000
  5589  H9O    0.787   -4.948    1.035   Ho   259      7sA   0.408000
  5590   O7    0.227   -0.388    2.367   Os   259      7sA  -0.480000
  5591   C2    0.180   -0.373    2.788   Cy   260      7sB   0.090000
  5592   C1    1.149   -0.968    3.947    C   260      7sB   0.979000
  5593  O1A    2.383   -0.757    3.887   O2   260      7sB  -0.839000
  5594  O1B    0.558   -1.589    4.869   O2   260      7sB  -0.839000
  5595   C3    0.360    1.165    2.827   Cg   260      7sB   0.133000
  5596  H3A    1.422    1.421    2.784   Hc   260      7sB   0.000000
  5597  H3E    0.005    1.558    3.783   Hc   260      7sB   0.000000
  5598   C4   -0.368    1.873    1.672   Cg   260      7sB   0.203000
  5599   H4   -1.442    1.729    1.799   H1   260      7sB   0.000000
  5600   O4   -0.098    3.306    1.755   Oh   260      7sB  -0.714000
  5601  H4O   -0.576    3.776    1.067   Ho   260      7sB   0.390000
  5602   C5    0.062    1.277    0.302   Cg   260      7sB   0.523000
  5603   H5    1.115    1.518    0.142   H1   260      7sB   0.000000
  5604   N5   -0.753    1.863   -0.778   Ng   260      7sB  -0.669000
  5605  H5N   -1.738    1.964   -0.606    H   260      7sB   0.261000
  5606  C5N   -0.259    2.186   -1.973    C   260      7sB   0.678000
  5607  CME   -1.225    2.875   -2.956   Cg   260      7sB  -0.005000
  5608  H1M   -1.024    2.531   -3.971   Hc   260      7sB   0.000000
  5609  H2M   -1.076    3.955   -2.911   Hc   260      7sB   0.000000
  5610  H3M   -2.265    2.648   -2.711   Hc   260      7sB   0.000000
  5611  O5N    0.905    1.949   -2.275    O   260      7sB  -0.634000
  5612   C6   -0.111   -0.255    0.309   Cg   260      7sB  -0.008000
  5613   H6   -1.178   -0.457    0.425   H1   260      7sB   0.000000
  5614   O6    0.558   -0.806    1.462   Oy   260      7sB  -0.344000
  5615   C7    0.330   -1.018   -0.962   Cg   260      7sB   0.278000
  5616   H7   -0.374   -0.766   -1.756   H1   260      7sB   0.000000
  5617   C8    0.345   -2.566   -0.811   Cg   260      7sB   0.367000
  5618   H8    1.138   -2.859   -0.121   H1   260      7sB   0.000000
  5619   C9    0.556   -3.288   -2.163   Cg   260      7sB   0.201000
  5620  H9R   -0.249   -3.033   -2.854   H1   260      7sB   0.000000
  5621  H9S    1.499   -2.977   -2.613   H1   260      7sB   0.000000
  5622   O9    0.583   -4.722   -1.985   Oh   260      7sB  -0.672000
  5623  H9O   -0.140   -4.944   -1.385   Ho   260      7sB   0.393000
  5624   O8   -0.932   -3.002   -0.253   Oh   260      7sB  -0.704000
  5625  H8O   -0.977   -2.662    0.651   Ho   260      7sB   0.392000
  5626   O7    1.637   -0.554   -1.383   Os   260      7sB  -0.460000
  5627   C2   -2.732   -0.405   -1.029   Cy   261      8sA   0.237000
  5628   C1   -2.223   -1.139   -2.402    C   261      8sA   0.789000
  5629  O1B   -2.362   -0.546   -3.499   O2   261      8sA  -0.761000
  5630  O1A   -1.595   -2.223   -2.255   O2   261      8sA  -0.761000
  5631   O6   -1.870   -0.687    0.082   Oy   261      8sA  -0.403000
  5632   C6   -0.499   -0.273   -0.079   Cg   261      8sA   0.220000
  5633   H6   -0.139   -0.594   -1.057   H1   261      8sA   0.000000
  5634   C5   -0.467    1.271   -0.100   Cg   261      8sA   0.308000
  5635   H5   -0.837    1.639    0.860   H1   261      8sA   0.000000
  5636   N5    0.916    1.766   -0.308   Ng   261      8sA  -0.629000
  5637  H5N    1.272    1.766   -1.250    H   261      8sA   0.280000
  5638  C5N    1.744    2.089    0.691    C   261      8sA   0.632000
  5639  O5N    1.417    1.985    1.870    O   261      8sA  -0.593000
  5640  CME    3.147    2.579    0.283   Cg   261      8sA  -0.003000
  5641  H1M    3.824    1.726    0.221   Hc   261      8sA   0.000000
  5642  H2M    3.525    3.279    1.029   Hc   261      8sA   0.000000
  5643  H3M    3.117    3.084   -0.685   Hc   261      8sA   0.000000
  5644   C4   -1.428    1.771   -1.223   Cg   261      8sA   0.332000
  5645   H4   -0.990    1.527   -2.191   H1   261      8sA   0.000000
  5646   O4   -1.578    3.213   -1.149   Oh   261      8sA  -0.762000
  5647  H4O   -0.715    3.625   -1.212   Ho   261      8sA   0.415000
  5648   C3   -2.828    1.137   -1.149   Cg   261      8sA   0.006000
  5649  H3A   -3.360    1.550   -0.288   Hc   261      8sA   0.000000
  5650  H3E   -3.420    1.420   -2.022   Hc   261      8sA   0.000000
  5651   C7    0.391   -1.024    0.933   Cg   261      8sA   0.111000
  5652   H7    1.431   -0.846    0.659   H1   261      8sA   0.000000
  5653   O7    0.201   -0.477    2.274   Oh   261      8sA  -0.721000
  5654  H7O    0.561    0.430    2.318   Ho   261      8sA   0.435000
  5655   C8    0.146   -2.560    0.904   Cg   261      8sA   0.492000
  5656   H8   -0.882   -2.780    1.194   H1   261      8sA   0.000000
  5657   C9    1.110   -3.330    1.845   Cg   261      8sA   0.178000
  5658  H9R    2.142   -3.184    1.521   H1   261      8sA   0.000000
  5659  H9S    1.024   -2.951    2.863   H1   261      8sA   0.000000
  5660   O9    0.823   -4.750    1.861   Oh   261      8sA  -0.689000
  5661  H9O    0.761   -5.037    0.942   Ho   261      8sA   0.408000
  5662   O8    0.370   -3.053   -0.452   Os   261      8sA  -0.521000
  5663   C2    0.109   -0.457    2.854   Cy   262      8sB   0.090000
  5664   C1    1.078   -1.052    4.012    C   262      8sB   0.979000
  5665  O1A    2.313   -0.841    3.953   O2   262      8sB  -0.839000
  5666  O1B    0.487   -1.673    4.934   O2   262      8sB  -0.839000
  5667   C3    0.290    1.081    2.893   Cg   262      8sB   0.133000
  5668  H3A    1.351    1.337    2.849   Hc   262      8sB   0.000000
  5669  H3E   -0.066    1.474    3.849   Hc   262      8sB   0.000000
  5670   C4   -0.438    1.789    1.738   Cg   262      8sB   0.203000
  5671   H4   -1.513    1.646    1.865   H1   262      8sB   0.000000
  5672   O4   -0.169    3.222    1.821   Oh   262      8sB  -0.714000
  5673  H4O   -0.647    3.692    1.133   Ho   262      8sB   0.390000
  5674   C5   -0.009    1.193    0.368   Cg   262      8sB   0.523000
  5675   H5    1.044    1.434    0.207   H1   262      8sB   0.000000
  5676   N5   -0.824    1.779   -0.713   Ng   262      8sB  -0.669000
  5677  H5N   -1.809    1.881   -0.540    H   262      8sB   0.261000
  5678  C5N   -0.330    2.102   -1.907    C   262      8sB   0.678000
  5679  CME   -1.296    2.791   -2.890   Cg   262      8sB  -0.005000
  5680  H1M   -1.095    2.447   -3.906   Hc   262      8sB   0.000000
  5681  H2M   -1.147    3.871   -2.845   Hc   262      8sB   0.000000
  5682  H3M   -2.336    2.564   -2.645   Hc   262      8sB   0.000000
  5683  O5N    0.834    1.865   -2.209    O   262      8sB  -0.634000
  5684   C6   -0.182   -0.339    0.375   Cg   262      8sB  -0.008000
  5685   H6   -1.249   -0.541    0.491   H1   262      8sB   0.000000
  5686   O6    0.487   -0.890    1.528   Oy   262      8sB  -0.344000
  5687   C7    0.260   -1.102   -0.896   Cg   262      8sB   0.278000
  5688   H7   -0.445   -0.850   -1.690   H1   262      8sB   0.000000
  5689   O7    1.566   -0.638   -1.317   Oh   262      8sB  -0.656000
  5690  H7O    1.498    0.275   -1.650   Ho   262      8sB   0.390000
  5691   C8    0.275   -2.650   -0.745   Cg   262      8sB   0.367000
  5692   H8    1.068   -2.943   -0.056   H1   262      8sB   0.000000
  5693   C9    0.486   -3.372   -2.097   Cg   262      8sB   0.201000
  5694  H9R   -0.320   -3.117   -2.788   H1   262      8sB   0.000000
  5695  H9S    1.428   -3.061   -2.548   H1   262      8sB   0.000000
  5696   O9    0.512   -4.806   -1.919   Oh   262      8sB  -0.672000
  5697  H9O   -0.211   -5.028   -1.320   Ho   262      8sB   0.393000
  5698   O8   -1.002   -3.086   -0.188   Os   262      8sB  -0.506000
  5699   C2   -2.700   -0.468   -0.974   Cy   263      9sA   0.237000
  5700   C1   -2.191   -1.202   -2.347    C   263      9sA   0.789000
  5701  O1B   -2.331   -0.609   -3.444   O2   263      9sA  -0.761000
  5702  O1A   -1.563   -2.285   -2.200   O2   263      9sA  -0.761000
  5703   O6   -1.838   -0.750    0.137   Oy   263      9sA  -0.403000
  5704   C6   -0.468   -0.335   -0.024   Cg   263      9sA   0.220000
  5705   H6   -0.108   -0.656   -1.002   H1   263      9sA   0.000000
  5706   C5   -0.436    1.208   -0.045   Cg   263      9sA   0.308000
  5707   H5   -0.805    1.576    0.915   H1   263      9sA   0.000000
  5708   N5    0.947    1.704   -0.253   Ng   263      9sA  -0.629000
  5709  H5N    1.304    1.703   -1.195    H   263      9sA   0.280000
  5710  C5N    1.776    2.026    0.746    C   263      9sA   0.632000
  5711  O5N    1.449    1.923    1.925    O   263      9sA  -0.593000
  5712  CME    3.178    2.516    0.338   Cg   263      9sA  -0.003000
  5713  H1M    3.856    1.663    0.276   Hc   263      9sA   0.000000
  5714  H2M    3.557    3.216    1.085   Hc   263      9sA   0.000000
  5715  H3M    3.149    3.022   -0.630   Hc   263      9sA   0.000000
  5716   C4   -1.396    1.709   -1.168   Cg   263      9sA   0.332000
  5717   H4   -0.958    1.464   -2.136   H1   263      9sA   0.000000
  5718   O4   -1.547    3.150   -1.094   Oh   263      9sA  -0.762000
  5719  H4O   -0.683    3.562   -1.157   Ho   263      9sA   0.415000
  5720   C3   -2.797    1.074   -1.094   Cg   263      9sA   0.006000
  5721  H3A   -3.329    1.488   -0.233   Hc   263      9sA   0.000000
  5722  H3E   -3.389    1.357   -1.967   Hc   263      9sA   0.000000
  5723   C7    0.422   -1.087    0.988   Cg   263      9sA   0.111000
  5724   H7    1.463   -0.909    0.714   H1   263      9sA   0.000000
  5725   O7    0.232   -0.540    2.329   Oh   263      9sA  -0.721000
  5726  H7O    0.592    0.367    2.373   Ho   263      9sA   0.435000
  5727   C8    0.178   -2.623    0.959   Cg   263      9sA   0.492000
  5728   H8   -0.851   -2.843    1.249   H1   263      9sA   0.000000
  5729   O8    0.401   -3.116   -0.397   Oh   263      9sA  -0.739000
  5730  H8O   -0.335   -2.838   -0.986   Ho   263      9sA   0.412000
  5731   C9    1.142   -3.393    1.900   Cg   263      9sA   0.178000
  5732  H9R    2.173   -3.247    1.576   H1   263      9sA   0.000000
  5733  H9S    1.055   -3.014    2.918   H1   263      9sA   0.000000
  5734   O9    0.855   -4.813    1.917   Os   263      9sA  -0.475000
  5735   C2    0.133   -0.520    2.797   Cy   264      9sB   0.090000
  5736   C1    1.101   -1.115    3.956    C   264      9sB   0.979000
  5737  O1A    2.336   -0.904    3.896   O2   264      9sB  -0.839000
  5738  O1B    0.510   -1.736    4.878   O2   264      9sB  -0.839000
  5739   C3    0.313    1.018    2.836   Cg   264      9sB   0.133000
  5740  H3A    1.375    1.274    2.793   Hc   264      9sB   0.000000
  5741  H3E   -0.043    1.411    3.792   Hc   264      9sB   0.000000
  5742   C4   -0.415    1.726    1.681   Cg   264      9sB   0.203000
  5743   H4   -1.490    1.582    1.808   H1   264      9sB   0.000000
  5744   O4   -0.146    3.159    1.764   Oh   264      9sB  -0.714000
  5745  H4O   -0.624    3.629    1.076   Ho   264      9sB   0.390000
  5746   C5    0.014    1.129    0.311   Cg   264      9sB   0.523000
  5747   H5    1.067    1.370    0.151   H1   264      9sB   0.000000
  5748   N5   -0.801    1.716   -0.769   Ng   264      9sB  -0.669000
  5749  H5N   -1.785    1.817   -0.596    H   264      9sB   0.261000
  5750  C5N   -0.307    2.039   -1.964    C   264      9sB   0.678000
  5751  CME   -1.273    2.728   -2.947   Cg   264      9sB  -0.005000
  5752  H1M   -1.071    2.384   -3.962   Hc   264      9sB   0.000000
  5753  H2M   -1.123    3.808   -2.902   Hc   264      9sB   0.000000
  5754  H3M   -2.313    2.501   -2.702   Hc   264      9sB   0.000000
  5755  O5N    0.857    1.802   -2.265    O   264      9sB  -0.634000
  5756   C6   -0.159   -0.402    0.318   Cg   264      9sB  -0.008000
  5757   H6   -1.226   -0.604    0.434   H1   264      9sB   0.000000
  5758   O6    0.511   -0.954    1.472   Oy   264      9sB  -0.344000
  5759   C7    0.283   -1.165   -0.953   Cg   264      9sB   0.278000
  5760   H7   -0.422   -0.913   -1.747   H1   264      9sB   0.000000
  5761   O7    1.590   -0.701   -1.374   Oh   264      9sB  -0.656000
  5762  H7O    1.522    0.212   -1.707   Ho   264      9sB   0.390000
  5763   C8    0.298   -2.713   -0.802   Cg   264      9sB   0.367000
  5764   H8    1.091   -3.006   -0.112   H1   264      9sB   0.000000
  5765   O8   -0.979   -3.150   -0.244   Oh   264      9sB  -0.704000
  5766  H8O   -1.024   -2.809    0.660   Ho   264      9sB   0.392000
  5767   C9    0.509   -3.435   -2.154   Cg   264      9sB   0.201000
  5768  H9R   -0.296   -3.181   -2.844   H1   264      9sB   0.000000
  5769  H9S    1.452   -3.125   -2.604   H1   264      9sB   0.000000
  5770   O9    0.536   -4.869   -1.976   Os   264      9sB  -0.473000
  5771   C1   -0.290   -1.740    0.906   Cg   265      PeA   0.480000
  5772   H1   -1.072   -2.305    1.415   H2   265      PeA   0.000000
  5773   O5   -0.884   -1.109   -0.297   Os   265      PeA  -0.587000
  5774   C5   -0.078   -0.111   -1.045   Cg   265      PeA   0.374000
  5775   H5    0.821   -0.598   -1.427   H1   265      PeA   0.000000
  5776   C6   -0.924    0.382   -2.227   Cg   265      PeA   0.259000
  5777  H61   -1.879    0.779   -1.879   H1   265      PeA   0.000000
  5778  H62   -0.400    1.169   -2.770   H1   265      PeA   0.000000
  5779   O6   -1.159   -0.715   -3.120   Os   265      PeA  -0.451000
  5780   C4    0.329    1.001   -0.058   Cg   265      PeA   0.261000
  5781   H4   -0.574    1.518    0.271   H1   265      PeA   0.000000
  5782   O4    1.167    1.963   -0.723   Os   265      PeA  -0.500000
  5783   C3    1.060    0.465    1.192   Cg   265      PeA   0.328000
  5784   H3    1.228    1.278    1.900   H1   265      PeA   0.000000
  5785   O3    2.343   -0.077    0.819   Os   265      PeA  -0.488000
  5786   C2    0.273   -0.673    1.871   Cg   265      PeA   0.179000
  5787   H2    0.892   -1.150    2.634   H1   265      PeA   0.000000
  5788   O2   -0.852   -0.077    2.538   Os   265      PeA  -0.437000
  5789   C1   -1.468   -0.254    1.326   Cg   266      PeB   0.488000
  5790   H1   -0.913   -0.654    2.174   H2   266      PeB   0.000000
  5791   C2   -1.156    1.263    1.131   Cg   266      PeB   0.184000
  5792   H2   -1.343    1.795    2.065   H1   266      PeB   0.000000
  5793   C3    0.321    1.420    0.726   Cg   266      PeB   0.315000
  5794   H3    0.533    2.471    0.523   H1   266      PeB   0.000000
  5795   C4    0.652    0.578   -0.537   Cg   266      PeB   0.320000
  5796   H4    0.070    0.962   -1.376   H1   266      PeB   0.000000
  5797   C5    0.292   -0.914   -0.327   Cg   266      PeB   0.257000
  5798   H5    0.934   -1.330    0.452   H1   266      PeB   0.000000
  5799   C6    0.483   -1.741   -1.612   Cg   266      PeB   0.278000
  5800  H61    1.520   -1.702   -1.943   H1   266      PeB   0.000000
  5801  H62   -0.147   -1.346   -2.411   H1   266      PeB   0.000000
  5802   O6    0.123   -3.114   -1.372   Os   266      PeB  -0.463000
  5803   O5   -1.135   -1.031    0.126   Os   266      PeB  -0.532000
  5804   O4    2.062    0.720   -0.878   Os   266      PeB  -0.498000
  5805   O3    1.147    1.004    1.849   Os   266      PeB  -0.472000
  5806   O2   -1.975    1.874    0.084   Os   266      PeB  -0.459000
  5807   C1   -0.613   -0.496    1.823   Cg   267      PgA   0.509000
  5808   H1   -1.489   -0.657    2.451   H2   267      PgA   0.000000
  5809   O5   -0.843   -1.119    0.521   Os   267      PgA  -0.574000
  5810   C5    0.177   -0.892   -0.555   Cg   267      PgA   0.283000
  5811   H5    1.120   -1.340   -0.235   H1   267      PgA   0.000000
  5812   C6   -0.277   -1.589   -1.858   Cg   267      PgA   0.276000
  5813  H61   -1.315   -1.331   -2.077   H1   267      PgA   0.000000
  5814  H62    0.334   -1.266   -2.701   H1   267      PgA   0.000000
  5815   O6   -0.158   -3.023   -1.742   Os   267      PgA  -0.458000
  5816   C4    0.401    0.624   -0.742   Cg   267      PgA   0.254000
  5817   H4   -0.498    1.072   -1.172   H1   267      PgA   0.000000
  5818   O4    1.508    0.828   -1.658   Os   267      PgA  -0.468000
  5819   C3    0.728    1.313    0.604   Cg   267      PgA   0.286000
  5820   H3    1.699    0.968    0.966   H1   267      PgA   0.000000
  5821   O3    0.796    2.746    0.385   Os   267      PgA  -0.466000
  5822   C2   -0.344    1.030    1.676   Cg   267      PgA   0.246000
  5823   H2   -1.277    1.500    1.362   H1   267      PgA   0.000000
  5824   O2    0.050    1.631    2.953   Os   267      PgA  -0.470000
  5825   C1   -1.420   -0.184    1.387   Cg   268      PgB   0.384000
  5826   H1   -0.846   -0.584    2.224   H2   268      PgB   0.000000
  5827   C2   -1.069    1.308    1.132   Cg   268      PgB   0.310000
  5828   H2   -1.767    1.722    0.401   H1   268      PgB   0.000000
  5829   C3    0.373    1.437    0.594   Cg   268      PgB   0.284000
  5830   H3    1.074    1.176    1.389   H1   268      PgB   0.000000
  5831   C4    0.625    0.518   -0.626   Cg   268      PgB   0.276000
  5832   H4    0.031    0.868   -1.472   H1   268      PgB   0.000000
  5833   C5    0.252   -0.946   -0.310   Cg   268      PgB   0.225000
  5834   H5    0.909   -1.321    0.478   H1   268      PgB   0.000000
  5835   C6    0.385   -1.867   -1.539   Cg   268      PgB   0.282000
  5836  H61    1.415   -1.885   -1.895   H1   268      PgB   0.000000
  5837  H62   -0.253   -1.508   -2.349   H1   268      PgB   0.000000
  5838   O6   -0.012   -3.206   -1.190   Os   268      PgB  -0.458000
  5839   O5   -1.155   -0.990    0.191   Os   268      PgB  -0.471000
  5840   O4    2.027    0.578   -0.983   Os   268      PgB  -0.468000
  5841   O3    0.615    2.816    0.199   Os   268      PgB  -0.471000
  5842   O2   -1.183    2.068    2.371   Os   268      PgB  -0.475000
  5843   C1   -0.407   -1.710    0.892   Cg   269      PkA   0.473000
  5844   H1   -1.198   -2.243    1.421   H2   269      PkA   0.000000
  5845   O5   -1.008   -1.010   -0.266   Os   269      PkA  -0.540000
  5846   C5   -0.131   -0.087   -1.038   Cg   269      PkA   0.301000
  5847   H5    0.700   -0.669   -1.443   H1   269      PkA   0.000000
  5848   C6   -0.927    0.474   -2.226   Cg   269      PkA   0.287000
  5849  H61   -1.841    0.963   -1.885   H1   269      PkA   0.000000
  5850  H62   -0.327    1.202   -2.771   H1   269      PkA   0.000000
  5851   O6   -1.265   -0.604   -3.109   Os   269      PkA  -0.463000
  5852   C4    0.470    0.983   -0.094   Cg   269      PkA   0.196000
  5853   H4    1.199    1.581   -0.642   H1   269      PkA   0.000000
  5854   O4   -0.576    1.864    0.357   Os   269      PkA  -0.486000
  5855   C3    1.132    0.378    1.160   Cg   269      PkA   0.354000
  5856   H3    1.388    1.167    1.868   H1   269      PkA   0.000000
  5857   O3    2.353   -0.255    0.733   Os   269      PkA  -0.502000
  5858   C2    0.205   -0.654    1.838   Cg   269      PkA   0.281000
  5859   H2   -0.633   -0.094    2.256   H1   269      PkA   0.000000
  5860   O2    0.867   -1.285    2.949   Os   269      PkA  -0.483000
  5861   C1   -1.389   -0.307    1.379   Cg   270      PkB   0.449000
  5862   H1   -0.807   -0.739    2.194   H2   270      PkB   0.000000
  5863   C2   -1.084    1.210    1.209   Cg   270      PkB   0.308000
  5864   H2   -1.775    1.629    0.476   H1   270      PkB   0.000000
  5865   C3    0.361    1.417    0.696   Cg   270      PkB   0.253000
  5866   H3    0.522    2.477    0.494   H1   270      PkB   0.000000
  5867   C4    0.641    0.603   -0.587   Cg   270      PkB   0.217000
  5868   H4    1.699    0.679   -0.841   H1   270      PkB   0.000000
  5869   C5    0.278   -0.895   -0.390   Cg   270      PkB   0.303000
  5870   H5    0.965   -1.309    0.351   H1   270      PkB   0.000000
  5871   C6    0.426   -1.726   -1.681   Cg   270      PkB   0.259000
  5872  H61    1.425   -1.597   -2.097   H1   270      PkB   0.000000
  5873  H62   -0.300   -1.404   -2.428   H1   270      PkB   0.000000
  5874   O6    0.219   -3.123   -1.398   Os   270      PkB  -0.448000
  5875   O5   -1.116   -1.042    0.140   Os   270      PkB  -0.514000
  5876   O4   -0.119    1.182   -1.685   Os   270      PkB  -0.469000
  5877   O3    1.318    1.003    1.707   Os   270      PkB  -0.462000
  5878   O2   -1.262    1.942    2.462   Os   270      PkB  -0.478000
  5879   C1   -0.475   -1.691    0.883   Cg   271      PlA   0.465000
  5880   H1   -1.289   -2.206    1.392   H2   271      PlA   0.000000
  5881   O5   -1.028   -0.983   -0.295   Os   271      PlA  -0.527000
  5882   C5   -0.099   -0.093   -1.048   Cg   271      PlA   0.216000
  5883   H5    0.737   -0.695   -1.408   H1   271      PlA   0.000000
  5884   C6   -0.834    0.468   -2.273   Cg   271      PlA   0.308000
  5885  H61   -1.751    0.980   -1.978   H1   271      PlA   0.000000
  5886  H62   -0.197    1.177   -2.803   H1   271      PlA   0.000000
  5887   O6   -1.158   -0.615   -3.155   Os   271      PlA  -0.460000
  5888   C4    0.475    0.973   -0.089   Cg   271      PlA   0.204000
  5889   H4    1.215    1.579   -0.614   H1   271      PlA   0.000000
  5890   O4   -0.607    1.829    0.341   Os   271      PlA  -0.431000
  5891   C3    1.126    0.299    1.138   Cg   271      PlA   0.253000
  5892   H3    1.998   -0.264    0.802   H1   271      PlA   0.000000
  5893   O3    1.576    1.316    2.052   Os   271      PlA  -0.462000
  5894   C2    0.149   -0.656    1.850   Cg   271      PlA   0.339000
  5895   H2   -0.662   -0.073    2.288   H1   271      PlA   0.000000
  5896   O2    0.824   -1.346    2.918   Os   271      PlA  -0.487000
  5897   C1   -1.400   -0.215    1.398   Cg   272      PlB   0.374000
  5898   H1   -0.829   -0.613    2.238   H2   272      PlB   0.000000
  5899   C2   -1.049    1.284    1.163   Cg   272      PlB   0.357000
  5900   H2   -1.751    1.717    0.447   H1   272      PlB   0.000000
  5901   C3    0.395    1.415    0.624   Cg   272      PlB   0.259000
  5902   H3    1.089    1.092    1.402   H1   272      PlB   0.000000
  5903   C4    0.634    0.538   -0.627   Cg   272      PlB   0.203000
  5904   H4    1.684    0.603   -0.917   H1   272      PlB   0.000000
  5905   C5    0.275   -0.935   -0.332   Cg   272      PlB   0.140000
  5906   H5    0.960   -1.295    0.437   H1   272      PlB   0.000000
  5907   C6    0.418   -1.850   -1.561   Cg   272      PlB   0.319000
  5908  H61    1.415   -1.754   -1.991   H1   272      PlB   0.000000
  5909  H62   -0.316   -1.591   -2.326   H1   272      PlB   0.000000
  5910   O6    0.214   -3.214   -1.156   Os   272      PlB  -0.468000
  5911   O5   -1.117   -1.027    0.207   Os   272      PlB  -0.402000
  5912   O4   -0.176    1.026   -1.726   Os   272      PlB  -0.421000
  5913   O3    0.703    2.800    0.301   Os   272      PlB  -0.455000
  5914   O2   -1.147    2.019    2.420   Os   272      PlB  -0.488000
  5915   C1   -0.740   -0.537    1.780   Cg   273      PmA   0.433000
  5916   H1   -1.673   -0.717    2.314   H2   273      PmA   0.000000
  5917   O5   -0.822   -1.173    0.457   Os   273      PmA  -0.507000
  5918   C5    0.253   -0.878   -0.542   Cg   273      PmA   0.276000
  5919   H5    1.182   -1.324   -0.181   H1   273      PmA   0.000000
  5920   C6   -0.111   -1.530   -1.894   Cg   273      PmA   0.266000
  5921  H61   -1.131   -1.262   -2.176   H1   273      PmA   0.000000
  5922  H62    0.558   -1.181   -2.680   H1   273      PmA   0.000000
  5923   O6   -0.001   -2.968   -1.820   Os   273      PmA  -0.460000
  5924   C4    0.466    0.648   -0.670   Cg   273      PmA   0.326000
  5925   H4   -0.401    1.106   -1.149   H1   273      PmA   0.000000
  5926   O4    1.638    0.890   -1.492   Os   273      PmA  -0.489000
  5927   C3    0.695    1.285    0.723   Cg   273      PmA   0.252000
  5928   H3    1.606    0.865    1.154   H1   273      PmA   0.000000
  5929   O3    0.887    2.728    0.609   Os   273      PmA  -0.459000
  5930   C2   -0.481    0.993    1.682   Cg   273      PmA   0.245000
  5931   H2   -0.242    1.383    2.673   H1   273      PmA   0.000000
  5932   O2   -1.682    1.673    1.210   Os   273      PmA  -0.465000
  5933   C1   -1.391   -0.249    1.428   Cg   274      PmB   0.314000
  5934   H1   -0.757   -0.549    2.263   H2   274      PmB   0.000000
  5935   C2   -1.167    1.254    1.100   Cg   274      PmB   0.241000
  5936   H2   -1.386    1.861    1.979   H1   274      PmB   0.000000
  5937   C3    0.318    1.420    0.696   Cg   274      PmB   0.263000
  5938   H3    0.933    1.071    1.528   H1   274      PmB   0.000000
  5939   C4    0.644    0.560   -0.555   Cg   274      PmB   0.349000
  5940   H4    0.068    0.914   -1.412   H1   274      PmB   0.000000
  5941   C5    0.319   -0.932   -0.286   Cg   274      PmB   0.206000
  5942   H5    1.018   -1.313    0.462   H1   274      PmB   0.000000
  5943   C6    0.449   -1.786   -1.559   Cg   274      PmB   0.273000
  5944  H61    1.462   -1.728   -1.958   H1   274      PmB   0.000000
  5945  H62   -0.242   -1.430   -2.325   H1   274      PmB   0.000000
  5946   O6    0.146   -3.160   -1.259   Os   274      PmB  -0.455000
  5947   O5   -1.066   -1.085    0.264   Os   274      PmB  -0.393000
  5948   O4    2.057    0.671   -0.868   Os   274      PmB  -0.497000
  5949   O3    0.643    2.825    0.492   Os   274      PmB  -0.456000
  5950   O2   -2.048    1.658    0.009   Os   274      PmB  -0.427000
  5951   C1   -0.334   -1.761    0.847   Cg   275      PnA   0.478000
  5952   H1   -1.124   -2.345    1.319   H2   275      PnA   0.000000
  5953   O5   -0.894   -1.099   -0.353   Os   275      PnA  -0.611000
  5954   C5   -0.067   -0.079   -1.054   Cg   275      PnA   0.404000
  5955   H5    0.821   -0.568   -1.459   H1   275      PnA   0.000000
  5956   C6   -0.902    0.481   -2.214   Cg   275      PnA   0.280000
  5957  H61   -1.846    0.888   -1.847   H1   275      PnA   0.000000
  5958  H62   -0.360    1.276   -2.727   H1   275      PnA   0.000000
  5959   O6   -1.169   -0.573   -3.149   Os   275      PnA  -0.461000
  5960   C4    0.370    0.991   -0.029   Cg   275      PnA   0.167000
  5961   H4   -0.516    1.536    0.300   H1   275      PnA   0.000000
  5962   O4    1.255    1.933   -0.660   Os   275      PnA  -0.483000
  5963   C3    1.060    0.405    1.221   Cg   275      PnA   0.330000
  5964   H3    1.246    1.195    1.950   H1   275      PnA   0.000000
  5965   O3    2.322   -0.192    0.849   Os   275      PnA  -0.467000
  5966   C2    0.140   -0.669    1.832   Cg   275      PnA   0.228000
  5967   H2   -0.756   -0.156    2.183   H1   275      PnA   0.000000
  5968   O2    0.752   -1.263    2.992   Os   275      PnA  -0.447000
  5969   C1   -1.392   -0.276    1.400   Cg   276      PnB   0.422000
  5970   H1   -0.810   -0.682    2.230   H2   276      PnB   0.000000
  5971   C2   -1.088    1.237    1.185   Cg   276      PnB   0.301000
  5972   H2   -1.789    1.637    0.448   H1   276      PnB   0.000000
  5973   C3    0.345    1.439    0.648   Cg   276      PnB   0.234000
  5974   H3    0.504    2.496    0.425   H1   276      PnB   0.000000
  5975   C4    0.550    0.600   -0.635   Cg   276      PnB   0.286000
  5976   H4   -0.147    0.951   -1.398   H1   276      PnB   0.000000
  5977   C5    0.281   -0.901   -0.374   Cg   276      PnB   0.198000
  5978   H5    0.991   -1.270    0.368   H1   276      PnB   0.000000
  5979   C6    0.420   -1.761   -1.645   Cg   276      PnB   0.313000
  5980  H61    1.433   -1.700   -2.042   H1   276      PnB   0.000000
  5981  H62   -0.274   -1.419   -2.412   H1   276      PnB   0.000000
  5982   O6    0.127   -3.132   -1.322   Os   276      PnB  -0.465000
  5983   O5   -1.105   -1.048    0.182   Os   276      PnB  -0.507000
  5984   O4    1.892    0.799   -1.136   Os   276      PnB  -0.471000
  5985   O3    1.310    1.030    1.662   Os   276      PnB  -0.420000
  5986   O2   -1.250    2.000    2.417   Os   276      PnB  -0.473000
  5987   C1   -0.458   -1.699    0.901   Cg   277      PtA   0.456000
  5988   H1   -1.288   -2.210    1.392   H2   277      PtA   0.000000
  5989   O5   -0.984   -1.008   -0.304   Os   277      PtA  -0.480000
  5990   C5   -0.061   -0.106   -1.044   Cg   277      PtA   0.157000
  5991   H5    0.795   -0.695   -1.380   H1   277      PtA   0.000000
  5992   C6   -0.781    0.425   -2.291   Cg   277      PtA   0.304000
  5993  H61   -1.716    0.918   -2.020   H1   277      PtA   0.000000
  5994  H62   -0.150    1.144   -2.814   H1   277      PtA   0.000000
  5995   O6   -1.061   -0.674   -3.168   Os   277      PtA  -0.462000
  5996   C4    0.473    0.983   -0.088   Cg   277      PtA   0.434000
  5997   H4    1.231    1.578   -0.600   H1   277      PtA   0.000000
  5998   O4   -0.615    1.852    0.291   Os   277      PtA  -0.508000
  5999   C3    1.090    0.322    1.162   Cg   277      PtA   0.124000
  6000   H3    1.966   -0.233    0.824   H1   277      PtA   0.000000
  6001   O3    1.569    1.320    2.081   Os   277      PtA  -0.439000
  6002   C2    0.173   -0.691    1.882   Cg   277      PtA   0.245000
  6003   H2    0.739   -1.219    2.650   H1   277      PtA   0.000000
  6004   O2   -0.920   -0.008    2.525   Os   277      PtA  -0.413000
  6005   C1   -1.306   -1.062    1.050   Cg   278      PtB   0.306000
  6006   H1   -0.756   -2.004    1.042   H2   278      PtB   0.000000
  6007   C2   -0.581   -0.057    1.970   Cg   278      PtB   0.340000
  6008   H2   -0.464   -0.482    2.968   H1   278      PtB   0.000000
  6009   C3    0.806    0.265    1.369   Cg   278      PtB   0.174000
  6010   H3    1.392   -0.654    1.421   H1   278      PtB   0.000000
  6011   C4    0.787    0.698   -0.116   Cg   278      PtB   0.314000
  6012   H4    1.809    0.756   -0.493   H1   278      PtB   0.000000
  6013   C5   -0.017   -0.319   -0.960   Cg   278      PtB   0.031000
  6014   H5    0.529   -1.265   -0.938   H1   278      PtB   0.000000
  6015   C6   -0.218    0.068   -2.432   Cg   278      PtB   0.349000
  6016  H61    0.742    0.295   -2.897   H1   278      PtB   0.000000
  6017  H62   -0.861    0.945   -2.519   H1   278      PtB   0.000000
  6018   O6   -0.822   -1.034   -3.122   Os   278      PtB  -0.454000
  6019   O5   -1.348   -0.539   -0.335   Os   278      PtB  -0.354000
  6020   O4    0.177    1.999   -0.247   Os   278      PtB  -0.407000
  6021   O3    1.496    1.237    2.174   Os   278      PtB  -0.447000
  6022   O2   -1.364    1.152    2.064   Os   278      PtB  -0.434000
  6023   C1   -0.219   -1.700    0.748   Cg   279      QeA   0.480000
  6024   H1   -1.001   -2.265    1.258   H2   279      QeA   0.000000
  6025   O5   -0.813   -1.069   -0.454   Os   279      QeA  -0.587000
  6026   C5   -0.007   -0.071   -1.202   Cg   279      QeA   0.374000
  6027   H5    0.892   -0.558   -1.585   H1   279      QeA   0.000000
  6028   C6   -0.853    0.422   -2.384   Cg   279      QeA   0.259000
  6029  H61   -1.808    0.819   -2.037   H1   279      QeA   0.000000
  6030  H62   -0.329    1.209   -2.927   H1   279      QeA   0.000000
  6031   O6   -1.088   -0.675   -3.277   Os   279      QeA  -0.451000
  6032   C4    0.400    1.041   -0.216   Cg   279      QeA   0.261000
  6033   H4   -0.503    1.558    0.113   H1   279      QeA   0.000000
  6034   O4    1.238    2.003   -0.881   Os   279      QeA  -0.500000
  6035   C3    1.131    0.505    1.034   Cg   279      QeA   0.328000
  6036   H3    1.299    1.318    1.742   H1   279      QeA   0.000000
  6037   C2    0.344   -0.633    1.713   Cg   279      QeA   0.179000
  6038   H2    0.963   -1.110    2.477   H1   279      QeA   0.000000
  6039   O2   -0.781   -0.038    2.380   Oh   279      QeA  -0.690000
  6040  H2O   -1.280   -0.719    2.837   Ho   279      QeA   0.447000
  6041   O3    2.414   -0.037    0.661   Os   279      QeA  -0.488000
  6042   C1   -1.315   -0.344    1.311   Cg   280      QeB   0.488000
  6043   H1   -0.760   -0.744    2.159   H2   280      QeB   0.000000
  6044   C2   -1.003    1.172    1.116   Cg   280      QeB   0.184000
  6045   H2   -1.190    1.705    2.049   H1   280      QeB   0.000000
  6046   O2   -1.822    1.784    0.069   Oh   280      QeB  -0.697000
  6047  H2O   -2.751    1.623    0.277   Ho   280      QeB   0.432000
  6048   C3    0.474    1.330    0.711   Cg   280      QeB   0.315000
  6049   H3    0.686    2.380    0.507   H1   280      QeB   0.000000
  6050   C4    0.805    0.488   -0.553   Cg   280      QeB   0.320000
  6051   H4    0.223    0.871   -1.391   H1   280      QeB   0.000000
  6052   C5    0.444   -1.004   -0.342   Cg   280      QeB   0.257000
  6053   H5    1.087   -1.421    0.437   H1   280      QeB   0.000000
  6054   C6    0.635   -1.831   -1.628   Cg   280      QeB   0.278000
  6055  H61    1.673   -1.793   -1.959   H1   280      QeB   0.000000
  6056  H62    0.006   -1.436   -2.426   H1   280      QeB   0.000000
  6057   O6    0.276   -3.204   -1.387   Os   280      QeB  -0.463000
  6058   O5   -0.982   -1.121    0.111   Os   280      QeB  -0.532000
  6059   O4    2.215    0.630   -0.894   Os   280      QeB  -0.498000
  6060   O3    1.300    0.914    1.833   Os   280      QeB  -0.472000
  6061   C1   -0.647   -0.550    1.643   Cg   281      QgA   0.509000
  6062   H1   -1.523   -0.711    2.271   H2   281      QgA   0.000000
  6063   O5   -0.877   -1.173    0.341   Os   281      QgA  -0.574000
  6064   C5    0.143   -0.946   -0.735   Cg   281      QgA   0.283000
  6065   H5    1.086   -1.394   -0.415   H1   281      QgA   0.000000
  6066   C6   -0.311   -1.643   -2.038   Cg   281      QgA   0.276000
  6067  H61   -1.349   -1.385   -2.257   H1   281      QgA   0.000000
  6068  H62    0.300   -1.320   -2.881   H1   281      QgA   0.000000
  6069   O6   -0.192   -3.077   -1.922   Os   281      QgA  -0.458000
  6070   C4    0.367    0.569   -0.922   Cg   281      QgA   0.254000
  6071   H4   -0.532    1.018   -1.351   H1   281      QgA   0.000000
  6072   O4    1.474    0.774   -1.838   Os   281      QgA  -0.468000
  6073   C3    0.694    1.258    0.424   Cg   281      QgA   0.286000
  6074   H3    1.665    0.914    0.786   H1   281      QgA   0.000000
  6075   C2   -0.378    0.976    1.497   Cg   281      QgA   0.246000
  6076   H2   -1.311    1.446    1.183   H1   281      QgA   0.000000
  6077   O2    0.016    1.577    2.773   Oh   281      QgA  -0.713000
  6078  H2O    0.613    0.974    3.237   Ho   281      QgA   0.437000
  6079   O3    0.762    2.692    0.206   Os   281      QgA  -0.466000
  6080   C1   -1.311   -0.285    1.243   Cg   282      QgB   0.384000
  6081   H1   -0.737   -0.685    2.080   H2   282      QgB   0.000000
  6082   C2   -0.961    1.207    0.988   Cg   282      QgB   0.310000
  6083   H2   -1.659    1.621    0.257   H1   282      QgB   0.000000
  6084   O2   -1.074    1.967    2.227   Oh   282      QgB  -0.718000
  6085  H2O   -1.959    1.821    2.588   Ho   282      QgB   0.437000
  6086   C3    0.482    1.336    0.450   Cg   282      QgB   0.284000
  6087   H3    1.183    1.075    1.245   H1   282      QgB   0.000000
  6088   C4    0.734    0.417   -0.769   Cg   282      QgB   0.276000
  6089   H4    0.140    0.767   -1.616   H1   282      QgB   0.000000
  6090   C5    0.361   -1.047   -0.454   Cg   282      QgB   0.225000
  6091   H5    1.018   -1.422    0.334   H1   282      QgB   0.000000
  6092   C6    0.493   -1.968   -1.683   Cg   282      QgB   0.282000
  6093  H61    1.523   -1.986   -2.039   H1   282      QgB   0.000000
  6094  H62   -0.144   -1.609   -2.493   H1   282      QgB   0.000000
  6095   O6    0.097   -3.307   -1.334   Os   282      QgB  -0.458000
  6096   O5   -1.046   -1.092    0.048   Os   282      QgB  -0.471000
  6097   O4    2.136    0.477   -1.127   Os   282      QgB  -0.468000
  6098   O3    0.724    2.715    0.056   Os   282      QgB  -0.471000
  6099   C1   -0.492   -1.615    0.754   Cg   283      QkA   0.473000
  6100   H1   -1.282   -2.148    1.283   H2   283      QkA   0.000000
  6101   O5   -1.093   -0.915   -0.404   Os   283      QkA  -0.540000
  6102   C5   -0.216    0.008   -1.177   Cg   283      QkA   0.301000
  6103   H5    0.615   -0.574   -1.581   H1   283      QkA   0.000000
  6104   C6   -1.011    0.569   -2.364   Cg   283      QkA   0.287000
  6105  H61   -1.925    1.058   -2.024   H1   283      QkA   0.000000
  6106  H62   -0.411    1.298   -2.909   H1   283      QkA   0.000000
  6107   O6   -1.350   -0.509   -3.247   Os   283      QkA  -0.463000
  6108   C4    0.386    1.078   -0.232   Cg   283      QkA   0.196000
  6109   H4    1.115    1.676   -0.781   H1   283      QkA   0.000000
  6110   O4   -0.661    1.959    0.219   Os   283      QkA  -0.486000
  6111   C3    1.048    0.473    1.021   Cg   283      QkA   0.354000
  6112   H3    1.304    1.262    1.730   H1   283      QkA   0.000000
  6113   C2    0.120   -0.559    1.700   Cg   283      QkA   0.281000
  6114   H2   -0.718    0.001    2.118   H1   283      QkA   0.000000
  6115   O2    0.782   -1.190    2.811   Oh   283      QkA  -0.716000
  6116  H2O    1.520   -1.713    2.487   Ho   283      QkA   0.427000
  6117   O3    2.269   -0.160    0.595   Os   283      QkA  -0.502000
  6118   C1   -1.275   -0.401    1.232   Cg   284      QkB   0.449000
  6119   H1   -0.693   -0.833    2.048   H2   284      QkB   0.000000
  6120   C2   -0.970    1.116    1.063   Cg   284      QkB   0.308000
  6121   H2   -1.661    1.535    0.330   H1   284      QkB   0.000000
  6122   O2   -1.148    1.848    2.316   Oh   284      QkB  -0.710000
  6123  H2O   -2.047    1.692    2.629   Ho   284      QkB   0.426000
  6124   C3    0.474    1.323    0.550   Cg   284      QkB   0.253000
  6125   H3    0.636    2.383    0.348   H1   284      QkB   0.000000
  6126   C4    0.754    0.509   -0.733   Cg   284      QkB   0.217000
  6127   H4    1.813    0.585   -0.987   H1   284      QkB   0.000000
  6128   C5    0.392   -0.989   -0.536   Cg   284      QkB   0.303000
  6129   H5    1.078   -1.403    0.205   H1   284      QkB   0.000000
  6130   C6    0.540   -1.820   -1.827   Cg   284      QkB   0.259000
  6131  H61    1.539   -1.691   -2.243   H1   284      QkB   0.000000
  6132  H62   -0.186   -1.498   -2.574   H1   284      QkB   0.000000
  6133   O6    0.332   -3.217   -1.544   Os   284      QkB  -0.448000
  6134   O5   -1.002   -1.136   -0.006   Os   284      QkB  -0.514000
  6135   O4   -0.005    1.088   -1.831   Os   284      QkB  -0.469000
  6136   O3    1.431    0.909    1.560   Os   284      QkB  -0.462000
  6137   C1   -0.555   -1.592    0.749   Cg   285      QlA   0.465000
  6138   H1   -1.370   -2.107    1.257   H2   285      QlA   0.000000
  6139   O5   -1.108   -0.883   -0.430   Os   285      QlA  -0.527000
  6140   C5   -0.180    0.007   -1.182   Cg   285      QlA   0.216000
  6141   H5    0.656   -0.596   -1.543   H1   285      QlA   0.000000
  6142   C6   -0.914    0.568   -2.408   Cg   285      QlA   0.308000
  6143  H61   -1.831    1.079   -2.112   H1   285      QlA   0.000000
  6144  H62   -0.278    1.276   -2.937   H1   285      QlA   0.000000
  6145   O6   -1.239   -0.516   -3.290   Os   285      QlA  -0.460000
  6146   C4    0.394    1.072   -0.224   Cg   285      QlA   0.204000
  6147   H4    1.134    1.678   -0.749   H1   285      QlA   0.000000
  6148   O4   -0.688    1.928    0.206   Os   285      QlA  -0.431000
  6149   C3    1.046    0.398    1.003   Cg   285      QlA   0.253000
  6150   H3    1.918   -0.165    0.667   H1   285      QlA   0.000000
  6151   C2    0.069   -0.557    1.715   Cg   285      QlA   0.339000
  6152   H2   -0.742    0.026    2.154   H1   285      QlA   0.000000
  6153   O2    0.743   -1.247    2.784   Oh   285      QlA  -0.724000
  6154  H2O    1.450   -1.786    2.420   Ho   285      QlA   0.431000
  6155   O3    1.496    1.416    1.918   Os   285      QlA  -0.462000
  6156   C1   -1.294   -0.314    1.252   Cg   286      QlB   0.374000
  6157   H1   -0.722   -0.712    2.092   H2   286      QlB   0.000000
  6158   C2   -0.942    1.186    1.017   Cg   286      QlB   0.357000
  6159   H2   -1.644    1.619    0.301   H1   286      QlB   0.000000
  6160   O2   -1.041    1.921    2.274   Oh   286      QlB  -0.726000
  6161  H2O   -1.924    1.774    2.632   Ho   286      QlB   0.432000
  6162   C3    0.502    1.316    0.477   Cg   286      QlB   0.259000
  6163   H3    1.196    0.994    1.256   H1   286      QlB   0.000000
  6164   C4    0.741    0.440   -0.773   Cg   286      QlB   0.203000
  6165   H4    1.790    0.505   -1.063   H1   286      QlB   0.000000
  6166   C5    0.381   -1.034   -0.479   Cg   286      QlB   0.140000
  6167   H5    1.067   -1.394    0.291   H1   286      QlB   0.000000
  6168   C6    0.525   -1.949   -1.708   Cg   286      QlB   0.319000
  6169  H61    1.522   -1.853   -2.137   H1   286      QlB   0.000000
  6170  H62   -0.209   -1.689   -2.473   H1   286      QlB   0.000000
  6171   O6    0.321   -3.313   -1.303   Os   286      QlB  -0.468000
  6172   O5   -1.010   -1.125    0.061   Os   286      QlB  -0.402000
  6173   O4   -0.069    0.928   -1.872   Os   286      QlB  -0.421000
  6174   O3    0.810    2.701    0.155   Os   286      QlB  -0.455000
  6175   C1   -0.663   -0.673    1.730   Cg   287      QmA   0.433000
  6176   H1   -1.597   -0.853    2.263   H2   287      QmA   0.000000
  6177   O5   -0.746   -1.309    0.407   Os   287      QmA  -0.507000
  6178   C5    0.329   -1.014   -0.593   Cg   287      QmA   0.276000
  6179   H5    1.258   -1.459   -0.232   H1   287      QmA   0.000000
  6180   C6   -0.035   -1.666   -1.945   Cg   287      QmA   0.266000
  6181  H61   -1.054   -1.398   -2.227   H1   287      QmA   0.000000
  6182  H62    0.634   -1.316   -2.731   H1   287      QmA   0.000000
  6183   O6    0.075   -3.104   -1.871   Os   287      QmA  -0.460000
  6184   C4    0.542    0.512   -0.721   Cg   287      QmA   0.326000
  6185   H4   -0.325    0.970   -1.200   H1   287      QmA   0.000000
  6186   O4    1.714    0.754   -1.542   Os   287      QmA  -0.489000
  6187   C3    0.771    1.149    0.673   Cg   287      QmA   0.252000
  6188   H3    1.682    0.729    1.103   H1   287      QmA   0.000000
  6189   C2   -0.405    0.857    1.632   Cg   287      QmA   0.245000
  6190   H2   -0.166    1.248    2.622   H1   287      QmA   0.000000
  6191   O2   -1.606    1.537    1.159   Oh   287      QmA  -0.717000
  6192  H2O   -1.372    2.441    0.915   Ho   287      QmA   0.446000
  6193   O3    0.963    2.593    0.558   Os   287      QmA  -0.459000
  6194   C1   -1.236   -0.325    1.413   Cg   288      QmB   0.314000
  6195   H1   -0.602   -0.626    2.249   H2   288      QmB   0.000000
  6196   C2   -1.011    1.178    1.086   Cg   288      QmB   0.241000
  6197   H2   -1.231    1.785    1.965   H1   288      QmB   0.000000
  6198   O2   -1.892    1.582   -0.005   Oh   288      QmB  -0.664000
  6199  H2O   -2.795    1.369    0.257   Ho   288      QmB   0.431000
  6200   C3    0.473    1.344    0.682   Cg   288      QmB   0.263000
  6201   H3    1.088    0.995    1.514   H1   288      QmB   0.000000
  6202   C4    0.799    0.484   -0.569   Cg   288      QmB   0.349000
  6203   H4    0.223    0.838   -1.426   H1   288      QmB   0.000000
  6204   C5    0.475   -1.008   -0.300   Cg   288      QmB   0.206000
  6205   H5    1.174   -1.389    0.448   H1   288      QmB   0.000000
  6206   C6    0.604   -1.862   -1.574   Cg   288      QmB   0.273000
  6207  H61    1.617   -1.804   -1.972   H1   288      QmB   0.000000
  6208  H62   -0.087   -1.506   -2.339   H1   288      QmB   0.000000
  6209   O6    0.301   -3.236   -1.273   Os   288      QmB  -0.455000
  6210   O5   -0.911   -1.161    0.249   Os   288      QmB  -0.393000
  6211   O4    2.212    0.595   -0.883   Os   288      QmB  -0.497000
  6212   O3    0.798    2.749    0.478   Os   288      QmB  -0.456000
  6213   C1   -0.415   -1.670    0.703   Cg   289      QnA   0.478000
  6214   H1   -1.205   -2.254    1.175   H2   289      QnA   0.000000
  6215   O5   -0.975   -1.009   -0.497   Os   289      QnA  -0.611000
  6216   C5   -0.148    0.012   -1.198   Cg   289      QnA   0.404000
  6217   H5    0.740   -0.478   -1.603   H1   289      QnA   0.000000
  6218   C6   -0.984    0.572   -2.357   Cg   289      QnA   0.280000
  6219  H61   -1.927    0.979   -1.991   H1   289      QnA   0.000000
  6220  H62   -0.442    1.367   -2.870   H1   289      QnA   0.000000
  6221   O6   -1.251   -0.482   -3.293   Os   289      QnA  -0.461000
  6222   C4    0.289    1.082   -0.172   Cg   289      QnA   0.167000
  6223   H4   -0.598    1.627    0.156   H1   289      QnA   0.000000
  6224   O4    1.174    2.024   -0.804   Os   289      QnA  -0.483000
  6225   C3    0.979    0.496    1.077   Cg   289      QnA   0.330000
  6226   H3    1.164    1.286    1.806   H1   289      QnA   0.000000
  6227   C2    0.059   -0.579    1.689   Cg   289      QnA   0.228000
  6228   H2   -0.838   -0.065    2.039   H1   289      QnA   0.000000
  6229   O2    0.670   -1.172    2.848   Oh   289      QnA  -0.668000
  6230  H2O    1.469   -1.635    2.586   Ho   289      QnA   0.415000
  6231   O3    2.241   -0.101    0.705   Os   289      QnA  -0.467000
  6232   C1   -1.278   -0.375    1.256   Cg   290      QnB   0.422000
  6233   H1   -0.696   -0.781    2.086   H2   290      QnB   0.000000
  6234   C2   -0.975    1.138    1.041   Cg   290      QnB   0.301000
  6235   H2   -1.675    1.538    0.305   H1   290      QnB   0.000000
  6236   O2   -1.136    1.900    2.273   Oh   290      QnB  -0.703000
  6237  H2O   -2.042    1.784    2.587   Ho   290      QnB   0.424000
  6238   C3    0.459    1.339    0.504   Cg   290      QnB   0.234000
  6239   H3    0.617    2.397    0.281   H1   290      QnB   0.000000
  6240   C4    0.663    0.501   -0.779   Cg   290      QnB   0.286000
  6241   H4   -0.033    0.852   -1.541   H1   290      QnB   0.000000
  6242   C5    0.394   -1.000   -0.518   Cg   290      QnB   0.198000
  6243   H5    1.105   -1.369    0.224   H1   290      QnB   0.000000
  6244   C6    0.534   -1.860   -1.789   Cg   290      QnB   0.313000
  6245  H61    1.547   -1.799   -2.186   H1   290      QnB   0.000000
  6246  H62   -0.161   -1.518   -2.556   H1   290      QnB   0.000000
  6247   O6    0.241   -3.231   -1.466   Os   290      QnB  -0.465000
  6248   O5   -0.991   -1.147    0.038   Os   290      QnB  -0.507000
  6249   O4    2.006    0.699   -1.280   Os   290      QnB  -0.471000
  6250   O3    1.423    0.931    1.518   Os   290      QnB  -0.420000
  6251   C1   -0.380   -1.665    0.744   Cg   291      QtA   0.456000
  6252   H1   -1.210   -2.175    1.236   H2   291      QtA   0.000000
  6253   O5   -0.906   -0.974   -0.460   Os   291      QtA  -0.480000
  6254   C5    0.017   -0.072   -1.200   Cg   291      QtA   0.157000
  6255   H5    0.873   -0.661   -1.536   H1   291      QtA   0.000000
  6256   C6   -0.703    0.460   -2.447   Cg   291      QtA   0.304000
  6257  H61   -1.638    0.952   -2.176   H1   291      QtA   0.000000
  6258  H62   -0.072    1.178   -2.970   H1   291      QtA   0.000000
  6259   O6   -0.983   -0.640   -3.325   Os   291      QtA  -0.462000
  6260   C4    0.551    1.017   -0.244   Cg   291      QtA   0.434000
  6261   H4    1.309    1.612   -0.756   H1   291      QtA   0.000000
  6262   O4   -0.537    1.886    0.135   Os   291      QtA  -0.508000
  6263   C3    1.168    0.356    1.006   Cg   291      QtA   0.124000
  6264   H3    2.044   -0.199    0.667   H1   291      QtA   0.000000
  6265   C2    0.251   -0.657    1.726   Cg   291      QtA   0.245000
  6266   H2    0.817   -1.185    2.494   H1   291      QtA   0.000000
  6267   O2   -0.842    0.026    2.368   Oh   291      QtA  -0.655000
  6268  H2O   -1.403   -0.615    2.812   Ho   291      QtA   0.436000
  6269   O3    1.647    1.355    1.925   Os   291      QtA  -0.439000
  6270   C1   -1.189   -1.112    0.923   Cg   292      QtB   0.306000
  6271   H1   -0.639   -2.054    0.915   H2   292      QtB   0.000000
  6272   C2   -0.463   -0.107    1.843   Cg   292      QtB   0.340000
  6273   H2   -0.346   -0.531    2.841   H1   292      QtB   0.000000
  6274   O2   -1.247    1.102    1.937   Oh   292      QtB  -0.637000
  6275  H2O   -2.116    0.893    2.287   Ho   292      QtB   0.397000
  6276   C3    0.923    0.215    1.242   Cg   292      QtB   0.174000
  6277   H3    1.510   -0.703    1.294   H1   292      QtB   0.000000
  6278   C4    0.904    0.649   -0.243   Cg   292      QtB   0.314000
  6279   H4    1.926    0.707   -0.620   H1   292      QtB   0.000000
  6280   C5    0.101   -0.369   -1.087   Cg   292      QtB   0.031000
  6281   H5    0.646   -1.315   -1.065   H1   292      QtB   0.000000
  6282   C6   -0.100    0.019   -2.559   Cg   292      QtB   0.349000
  6283  H61    0.859    0.245   -3.024   H1   292      QtB   0.000000
  6284  H62   -0.743    0.895   -2.646   H1   292      QtB   0.000000
  6285   O6   -0.705   -1.083   -3.249   Os   292      QtB  -0.454000
  6286   O5   -1.230   -0.588   -0.462   Os   292      QtB  -0.354000
  6287   O4    0.294    1.950   -0.374   Os   292      QtB  -0.407000
  6288   O3    1.613    1.188    2.047   Os   292      QtB  -0.447000
  6289   C1   -0.007   -1.272   -0.476   Cg   293      QvA   0.389000
  6290   H1    0.251   -1.608   -1.480   H2   293      QvA   0.000000
  6291   O5    1.022   -1.764    0.452   Os   293      QvA  -0.466000
  6292   C5    1.011   -1.233    1.852   Cg   293      QvA   0.112000
  6293   H5    0.086   -1.577    2.317   H1   293      QvA   0.000000
  6294   C6    2.162   -1.847    2.676   Cg   293      QvA   0.362000
  6295  H61    2.097   -1.502    3.708   H1   293      QvA   0.000000
  6296  H62    2.084   -2.934    2.678   H1   293      QvA   0.000000
  6297   O6    3.438   -1.469    2.139   Os   293      QvA  -0.481000
  6298   C4    0.965    0.314    1.856   Cg   293      QvA   0.326000
  6299   H4    0.819    0.664    2.879   H1   293      QvA   0.000000
  6300   O4    2.218    0.854    1.365   Os   293      QvA  -0.453000
  6301   C3   -0.189    0.839    0.970   Cg   293      QvA   0.176000
  6302   H3   -1.130    0.501    1.407   H1   293      QvA   0.000000
  6303   C2   -0.095    0.290   -0.478   Cg   293      QvA   0.399000
  6304   H2    0.828    0.670   -0.921   H1   293      QvA   0.000000
  6305   N2   -1.230    0.776   -1.300   Ng   293      QvA  -0.595000
  6306  H2N   -2.136    0.811   -0.862    H   293      QvA   0.238000
  6307  C2N   -1.154    0.901   -2.628    C   293      QvA   0.625000
  6308  O2N   -0.110    0.699   -3.240    O   293      QvA  -0.605000
  6309  CME   -2.450    1.320   -3.349   Cg   293      QvA   0.032000
  6310  H1M   -2.684    2.358   -3.108   Hc   293      QvA   0.000000
  6311  H2M   -2.326    1.227   -4.429   Hc   293      QvA   0.000000
  6312  H3M   -3.277    0.682   -3.035   Hc   293      QvA   0.000000
  6313   O3   -0.192    2.301    1.007   Os   293      QvA  -0.447000
  6314   C1   -0.820   -1.260    0.455   Cg   294      QvB   0.305000
  6315   H1   -0.200   -1.637    1.270   H2   294      QvB   0.000000
  6316   C2   -0.533    0.267    0.242   Cg   294      QvB   0.544000
  6317   H2   -1.217    0.634   -0.525   H1   294      QvB   0.000000
  6318   N2   -0.739    1.027    1.496   Ng   294      QvB  -0.686000
  6319  H2N   -0.350    0.655    2.345    H   294      QvB   0.254000
  6320  C2N   -1.447    2.160    1.547    C   294      QvB   0.586000
  6321  CME   -1.558    2.834    2.930   Cg   294      QvB   0.056000
  6322  H1M   -0.683    3.464    3.099   Hc   294      QvB   0.000000
  6323  H2M   -2.455    3.454    2.971   Hc   294      QvB   0.000000
  6324  H3M   -1.618    2.083    3.721   Hc   294      QvB   0.000000
  6325  O2N   -1.973    2.651    0.553    O   294      QvB  -0.564000
  6326   C3    0.929    0.437   -0.268   Cg   294      QvB   0.152000
  6327   H3    1.604    0.076    0.511   H1   294      QvB   0.000000
  6328   C4    1.180   -0.395   -1.544   Cg   294      QvB   0.253000
  6329   H4    2.225   -0.293   -1.840   H1   294      QvB   0.000000
  6330   C5    0.860   -1.888   -1.311   Cg   294      QvB   0.136000
  6331   H5    1.567   -2.264   -0.569   H1   294      QvB   0.000000
  6332   C6    1.007   -2.736   -2.587   Cg   294      QvB   0.353000
  6333  H61    1.993   -2.587   -3.030   H1   294      QvB   0.000000
  6334  H62    0.251   -2.466   -3.323   H1   294      QvB   0.000000
  6335   O6    0.859   -4.123   -2.242   Os   294      QvB  -0.481000
  6336   O5   -0.519   -2.042   -0.755   Os   294      QvB  -0.408000
  6337   O4    0.350    0.120   -2.609   Os   294      QvB  -0.444000
  6338   O3    1.287    1.828   -0.538   Os   294      QvB  -0.444000
  6339   C1   -1.181   -1.299   -0.565   Cg   295      QwA   0.462100
  6340   H1   -0.953   -1.687   -1.557   H2   295      QwA   0.000000
  6341   O5   -0.169   -1.793    0.379   Os   295      QwA  -0.541500
  6342   C5   -0.206   -1.274    1.780   Cg   295      QwA   0.242100
  6343   H5   -1.111   -1.676    2.242   H1   295      QwA   0.000000
  6344   C6    0.994   -1.828    2.579   Cg   295      QwA   0.299500
  6345  H61    0.845   -1.653    3.644   H1   295      QwA   0.000000
  6346  H62    1.068   -2.905    2.427   H1   295      QwA   0.000000
  6347   O6    2.238   -1.214    2.182   Os   295      QwA  -0.459900
  6348   C4   -0.306    0.270    1.805   Cg   295      QwA   0.321300
  6349   H4    0.658    0.697    1.527   H1   295      QwA   0.000000
  6350   O4   -0.622    0.693    3.164   Os   295      QwA  -0.482100
  6351   C3   -1.381    0.815    0.831   Cg   295      QwA   0.252000
  6352   H3   -2.365    0.522    1.201   H1   295      QwA   0.000000
  6353   C2   -1.215    0.254   -0.604   Cg   295      QwA   0.275000
  6354   H2   -2.079    0.561   -1.197   H1   295      QwA   0.000000
  6355   N2   -0.011    0.801   -1.272   Ng   295      QwA  -0.475100
  6356  H2N    0.659    1.288   -0.700    H   295      QwA   0.214200
  6357  C2N    0.192    0.755   -2.592    C   295      QwA   0.590900
  6358  O2N   -0.590    0.195   -3.357    O   295      QwA  -0.575700
  6359  CME    1.482    1.430   -3.092   Cg   295      QwA  -0.034000
  6360  H1M    1.475    2.487   -2.825   Hc   295      QwA   0.000000
  6361  H2M    1.557    1.342   -4.177   Hc   295      QwA   0.000000
  6362  H3M    2.350    0.949   -2.639   Hc   295      QwA   0.000000
  6363   O3   -1.329    2.269    0.815   Os   295      QwA  -0.476800
  6364   C1   -0.506   -1.114    1.578   Cg   296      QwB   0.387000
  6365   H1    0.139   -1.454    2.389   H2   296      QwB   0.000000
  6366   C2   -0.245    0.390    1.272   Cg   296      QwB   0.294000
  6367   H2   -0.355    0.945    2.206   H1   296      QwB   0.000000
  6368   N2   -1.204    0.947    0.284   Ng   296      QwB  -0.558000
  6369  H2N   -1.574    0.316   -0.408    H   296      QwB   0.265000
  6370  C2N   -1.623    2.216    0.296    C   296      QwB   0.585000
  6371  CME   -2.674    2.610   -0.764   Cg   296      QwB   0.056000
  6372  H1M   -2.192    3.195   -1.547   Hc   296      QwB   0.000000
  6373  H2M   -3.459    3.210   -0.302   Hc   296      QwB   0.000000
  6374  H3M   -3.131    1.727   -1.215   Hc   296      QwB   0.000000
  6375  O2N   -1.166    3.033    1.092    O   296      QwB  -0.600000
  6376   C3    1.223    0.541    0.798   Cg   296      QwB   0.217000
  6377   H3    1.873    0.268    1.631   H1   296      QwB   0.000000
  6378   C4    1.542   -0.382   -0.407   Cg   296      QwB   0.277000
  6379   H4    0.993   -0.032   -1.284   H1   296      QwB   0.000000
  6380   C5    1.161   -1.855   -0.118   Cg   296      QwB   0.321000
  6381   H5    1.820   -2.245    0.660   H1   296      QwB   0.000000
  6382   C6    1.287   -2.754   -1.365   Cg   296      QwB   0.247000
  6383  H61    2.313   -2.752   -1.733   H1   296      QwB   0.000000
  6384  H62    0.638   -2.386   -2.160   H1   296      QwB   0.000000
  6385   O6    0.911   -4.110   -1.047   Os   296      QwB  -0.444000
  6386   O5   -0.247   -1.927    0.389   Os   296      QwB  -0.498000
  6387   O4    2.960   -0.311   -0.689   Os   296      QwB  -0.498000
  6388   O3    1.518    1.924    0.441   Os   296      QwB  -0.439000
  6389   C1   -0.126   -1.529   -0.589   Cg   297      QyA   0.468000
  6390   H1    0.133   -1.923   -1.572   H2   297      QyA   0.000000
  6391   O5    0.792   -2.106    0.394   Os   297      QyA  -0.568000
  6392   C5    0.790   -1.536    1.781   Cg   297      QyA   0.246000
  6393   H5   -0.167   -1.802    2.235   H1   297      QyA   0.000000
  6394   C6    1.899   -2.199    2.627   Cg   297      QyA   0.328000
  6395  H61    1.785   -3.282    2.595   H1   297      QyA   0.000000
  6396  H62    1.813   -1.886    3.668   H1   297      QyA   0.000000
  6397   O6    3.216   -1.855    2.144   Os   297      QyA  -0.461000
  6398   C4    0.896    0.004    1.756   Cg   297      QyA   0.322000
  6399   H4    1.907    0.300    1.468   H1   297      QyA   0.000000
  6400   O4    0.619    0.509    3.084   Os   297      QyA  -0.478000
  6401   C3   -0.114    0.651    0.781   Cg   297      QyA   0.165000
  6402   H3   -1.125    0.522    1.172   H1   297      QyA   0.000000
  6403   C2   -0.045    0.026   -0.633   Cg   297      QyA   0.245000
  6404   H2    0.927    0.281   -1.060   H1   297      QyA   0.000000
  6405   N2   -1.088    0.595   -1.525   Ng   297      QyA  -0.552000
  6406  H2N   -1.949    0.072   -1.588    H   297      QyA   0.236000
  6407  C2N   -0.981    1.758   -2.178    C   297      QyA   0.588000
  6408  O2N   -0.017    2.499   -2.010    O   297      QyA  -0.579000
  6409  CME   -2.130    2.133   -3.139   Cg   297      QyA   0.063000
  6410  H1M   -2.599    3.056   -2.799   Hc   297      QyA   0.000000
  6411  H2M   -1.728    2.287   -4.141   Hc   297      QyA   0.000000
  6412  H3M   -2.886    1.347   -3.181   Hc   297      QyA   0.000000
  6413   O3    0.176    2.077    0.710   Os   297      QyA  -0.411000
  6414   C1   -0.833   -1.189    0.449   Cg   298      QyB   0.287000
  6415   H1   -0.216   -1.589    1.256   H2   298      QyB   0.000000
  6416   C2   -0.497    0.323    0.219   Cg   298      QyB   0.480000
  6417   H2   -1.179    0.700   -0.547   H1   298      QyB   0.000000
  6418   N2   -0.671    1.106    1.468   Ng   298      QyB  -0.722000
  6419  H2N   -0.317    0.706    2.321    H   298      QyB   0.300000
  6420  C2N   -1.439    2.196    1.546    C   298      QyB   0.648000
  6421  CME   -1.596    2.826    2.945   Cg   298      QyB   0.034000
  6422  H1M   -0.738    3.468    3.150   Hc   298      QyB   0.000000
  6423  H2M   -2.505    3.428    2.984   Hc   298      QyB   0.000000
  6424  H3M   -1.657    2.051    3.712   Hc   298      QyB   0.000000
  6425  O2N   -1.963    2.696    0.557    O   298      QyB  -0.576000
  6426   C3    0.955    0.457   -0.322   Cg   298      QyB   0.180000
  6427   H3    1.649    0.134    0.458   H1   298      QyB   0.000000
  6428   C4    1.160   -0.429   -1.573   Cg   298      QyB   0.302000
  6429   H4    0.538   -0.058   -2.390   H1   298      QyB   0.000000
  6430   C5    0.814   -1.905   -1.290   Cg   298      QyB   0.208000
  6431   H5    1.489   -2.290   -0.523   H1   298      QyB   0.000000
  6432   C6    0.937   -2.791   -2.544   Cg   298      QyB   0.289000
  6433  H61    1.959   -2.777   -2.923   H1   298      QyB   0.000000
  6434  H62    0.273   -2.429   -3.330   H1   298      QyB   0.000000
  6435   O6    0.583   -4.147   -2.216   Os   298      QyB  -0.459000
  6436   O5   -0.581   -1.976   -0.764   Os   298      QyB  -0.433000
  6437   O4    2.547   -0.349   -1.968   Os   298      QyB  -0.474000
  6438   O3    1.287    1.836   -0.675   Os   298      QyB  -0.452000
  6439   C1   -0.437   -1.719    0.822   Cg   299      ReA   0.480000
  6440   H1   -1.219   -2.284    1.331   H2   299      ReA   0.000000
  6441   O5   -1.031   -1.088   -0.381   Os   299      ReA  -0.587000
  6442   C5   -0.225   -0.089   -1.129   Cg   299      ReA   0.374000
  6443   H5    0.674   -0.577   -1.512   H1   299      ReA   0.000000
  6444   C6   -1.071    0.403   -2.311   Cg   299      ReA   0.259000
  6445  H61   -2.026    0.800   -1.964   H1   299      ReA   0.000000
  6446  H62   -0.547    1.190   -2.854   H1   299      ReA   0.000000
  6447   O6   -1.306   -0.694   -3.204   Os   299      ReA  -0.451000
  6448   C4    0.182    1.022   -0.142   Cg   299      ReA   0.261000
  6449   H4   -0.721    1.540    0.186   H1   299      ReA   0.000000
  6450   O4    1.020    1.984   -0.808   Os   299      ReA  -0.500000
  6451   C3    0.913    0.486    1.108   Cg   299      ReA   0.328000
  6452   H3    1.081    1.300    1.815   H1   299      ReA   0.000000
  6453   O3    2.196   -0.056    0.735   Oh   299      ReA  -0.714000
  6454  H3O    2.645   -0.383    1.518   Ho   299      ReA   0.420000
  6455   C2    0.126   -0.652    1.787   Cg   299      ReA   0.179000
  6456   H2    0.745   -1.129    2.550   H1   299      ReA   0.000000
  6457   O2   -0.999   -0.056    2.454   Os   299      ReA  -0.437000
  6458   C1   -1.576   -0.305    1.244   Cg   300      ReB   0.488000
  6459   H1   -1.022   -0.706    2.092   H2   300      ReB   0.000000
  6460   C2   -1.265    1.211    1.049   Cg   300      ReB   0.184000
  6461   H2   -1.452    1.743    1.983   H1   300      ReB   0.000000
  6462   C3    0.213    1.368    0.644   Cg   300      ReB   0.315000
  6463   H3    0.424    2.419    0.441   H1   300      ReB   0.000000
  6464   C4    0.544    0.526   -0.619   Cg   300      ReB   0.320000
  6465   H4   -0.039    0.910   -1.458   H1   300      ReB   0.000000
  6466   C5    0.183   -0.965   -0.409   Cg   300      ReB   0.257000
  6467   H5    0.825   -1.382    0.370   H1   300      ReB   0.000000
  6468   C6    0.374   -1.793   -1.694   Cg   300      ReB   0.278000
  6469  H61    1.412   -1.754   -2.025   H1   300      ReB   0.000000
  6470  H62   -0.256   -1.397   -2.493   H1   300      ReB   0.000000
  6471   O6    0.014   -3.165   -1.454   Os   300      ReB  -0.463000
  6472   O5   -1.244   -1.083    0.044   Os   300      ReB  -0.532000
  6473   O4    1.953    0.669   -0.960   Os   300      ReB  -0.498000
  6474   O3    1.038    0.952    1.767   Oh   300      ReB  -0.681000
  6475  H3O    1.958    0.931    1.477   Ho   300      ReB   0.403000
  6476   O2   -2.084    1.822    0.002   Os   300      ReB  -0.459000
  6477   C1   -0.653   -0.663    1.757   Cg   301      RgA   0.509000
  6478   H1   -1.529   -0.824    2.385   H2   301      RgA   0.000000
  6479   O5   -0.883   -1.286    0.455   Os   301      RgA  -0.574000
  6480   C5    0.137   -1.059   -0.621   Cg   301      RgA   0.283000
  6481   H5    1.080   -1.507   -0.301   H1   301      RgA   0.000000
  6482   C6   -0.318   -1.756   -1.924   Cg   301      RgA   0.276000
  6483  H61   -1.355   -1.498   -2.143   H1   301      RgA   0.000000
  6484  H62    0.294   -1.433   -2.767   H1   301      RgA   0.000000
  6485   O6   -0.198   -3.190   -1.808   Os   301      RgA  -0.458000
  6486   C4    0.361    0.457   -0.808   Cg   301      RgA   0.254000
  6487   H4   -0.538    0.905   -1.237   H1   301      RgA   0.000000
  6488   O4    1.468    0.661   -1.724   Os   301      RgA  -0.468000
  6489   C3    0.688    1.146    0.538   Cg   301      RgA   0.286000
  6490   H3    1.659    0.801    0.900   H1   301      RgA   0.000000
  6491   O3    0.756    2.580    0.320   Oh   301      RgA  -0.699000
  6492  H3O    0.724    3.005    1.187   Ho   301      RgA   0.427000
  6493   C2   -0.385    0.863    1.610   Cg   301      RgA   0.246000
  6494   H2   -1.317    1.333    1.296   H1   301      RgA   0.000000
  6495   O2    0.010    1.464    2.887   Os   301      RgA  -0.470000
  6496   C1   -1.440   -0.362    1.337   Cg   302      RgB   0.384000
  6497   H1   -0.866   -0.762    2.174   H2   302      RgB   0.000000
  6498   C2   -1.089    1.130    1.082   Cg   302      RgB   0.310000
  6499   H2   -1.787    1.545    0.351   H1   302      RgB   0.000000
  6500   C3    0.353    1.260    0.544   Cg   302      RgB   0.284000
  6501   H3    1.054    0.999    1.339   H1   302      RgB   0.000000
  6502   C4    0.605    0.340   -0.676   Cg   302      RgB   0.276000
  6503   H4    0.011    0.690   -1.522   H1   302      RgB   0.000000
  6504   C5    0.233   -1.124   -0.360   Cg   302      RgB   0.225000
  6505   H5    0.889   -1.498    0.428   H1   302      RgB   0.000000
  6506   C6    0.365   -2.044   -1.589   Cg   302      RgB   0.282000
  6507  H61    1.395   -2.063   -1.945   H1   302      RgB   0.000000
  6508  H62   -0.272   -1.686   -2.399   H1   302      RgB   0.000000
  6509   O6   -0.032   -3.384   -1.240   Os   302      RgB  -0.458000
  6510   O5   -1.175   -1.168    0.141   Os   302      RgB  -0.471000
  6511   O4    2.007    0.400   -1.033   Os   302      RgB  -0.468000
  6512   O3    0.595    2.638    0.149   Oh   302      RgB  -0.709000
  6513  H3O    0.355    3.200    0.899   Ho   302      RgB   0.432000
  6514   O2   -1.203    1.890    2.321   Os   302      RgB  -0.475000
  6515   C1   -0.555   -1.677    0.814   Cg   303      RkA   0.473000
  6516   H1   -1.345   -2.210    1.342   H2   303      RkA   0.000000
  6517   O5   -1.156   -0.976   -0.345   Os   303      RkA  -0.540000
  6518   C5   -0.279   -0.054   -1.117   Cg   303      RkA   0.301000
  6519   H5    0.552   -0.635   -1.521   H1   303      RkA   0.000000
  6520   C6   -1.074    0.507   -2.304   Cg   303      RkA   0.287000
  6521  H61   -1.988    0.996   -1.964   H1   303      RkA   0.000000
  6522  H62   -0.474    1.236   -2.850   H1   303      RkA   0.000000
  6523   O6   -1.413   -0.571   -3.187   Os   303      RkA  -0.463000
  6524   C4    0.323    1.016   -0.172   Cg   303      RkA   0.196000
  6525   H4    1.052    1.614   -0.721   H1   303      RkA   0.000000
  6526   O4   -0.724    1.897    0.278   Os   303      RkA  -0.486000
  6527   C3    0.985    0.411    1.081   Cg   303      RkA   0.354000
  6528   H3    1.241    1.200    1.789   H1   303      RkA   0.000000
  6529   O3    2.206   -0.222    0.655   Oh   303      RkA  -0.744000
  6530  H3O    2.652   -0.600    1.416   Ho   303      RkA   0.436000
  6531   C2    0.057   -0.620    1.759   Cg   303      RkA   0.281000
  6532   H2   -0.781   -0.061    2.178   H1   303      RkA   0.000000
  6533   O2    0.719   -1.251    2.870   Os   303      RkA  -0.483000
  6534   C1   -1.446   -0.384    1.246   Cg   304      RkB   0.449000
  6535   H1   -0.864   -0.816    2.062   H2   304      RkB   0.000000
  6536   C2   -1.141    1.133    1.076   Cg   304      RkB   0.308000
  6537   H2   -1.832    1.552    0.343   H1   304      RkB   0.000000
  6538   C3    0.303    1.340    0.563   Cg   304      RkB   0.253000
  6539   H3    0.465    2.400    0.361   H1   304      RkB   0.000000
  6540   C4    0.583    0.526   -0.720   Cg   304      RkB   0.217000
  6541   H4    1.642    0.602   -0.974   H1   304      RkB   0.000000
  6542   C5    0.221   -0.972   -0.523   Cg   304      RkB   0.303000
  6543   H5    0.907   -1.386    0.218   H1   304      RkB   0.000000
  6544   C6    0.369   -1.803   -1.814   Cg   304      RkB   0.259000
  6545  H61    1.368   -1.674   -2.230   H1   304      RkB   0.000000
  6546  H62   -0.357   -1.482   -2.561   H1   304      RkB   0.000000
  6547   O6    0.161   -3.201   -1.531   Os   304      RkB  -0.448000
  6548   O5   -1.173   -1.119    0.007   Os   304      RkB  -0.514000
  6549   O4   -0.176    1.105   -1.818   Os   304      RkB  -0.469000
  6550   O3    1.260    0.926    1.574   Oh   304      RkB  -0.710000
  6551  H3O    1.030    1.387    2.393   Ho   304      RkB   0.442000
  6552   O2   -1.319    1.865    2.329   Os   304      RkB  -0.478000
  6553   C1   -0.579   -1.738    0.735   Cg   305      RlA   0.465000
  6554   H1   -1.394   -2.254    1.244   H2   305      RlA   0.000000
  6555   O5   -1.132   -1.030   -0.443   Os   305      RlA  -0.527000
  6556   C5   -0.204   -0.140   -1.196   Cg   305      RlA   0.216000
  6557   H5    0.632   -0.743   -1.556   H1   305      RlA   0.000000
  6558   C6   -0.939    0.421   -2.421   Cg   305      RlA   0.308000
  6559  H61   -1.856    0.932   -2.126   H1   305      RlA   0.000000
  6560  H62   -0.302    1.130   -2.951   H1   305      RlA   0.000000
  6561   O6   -1.263   -0.662   -3.303   Os   305      RlA  -0.460000
  6562   C4    0.370    0.926   -0.237   Cg   305      RlA   0.204000
  6563   H4    1.110    1.531   -0.762   H1   305      RlA   0.000000
  6564   O4   -0.712    1.782    0.193   Os   305      RlA  -0.431000
  6565   C3    1.022    0.252    0.990   Cg   305      RlA   0.253000
  6566   H3    1.894   -0.312    0.654   H1   305      RlA   0.000000
  6567   O3    1.471    1.269    1.904   Oh   305      RlA  -0.701000
  6568  H3O    1.886    0.854    2.664   Ho   305      RlA   0.433000
  6569   C2    0.044   -0.704    1.702   Cg   305      RlA   0.339000
  6570   H2   -0.766   -0.120    2.140   H1   305      RlA   0.000000
  6571   O2    0.719   -1.394    2.770   Os   305      RlA  -0.487000
  6572   C1   -1.427   -0.391    1.341   Cg   306      RlB   0.374000
  6573   H1   -0.855   -0.789    2.181   H2   306      RlB   0.000000
  6574   C2   -1.076    1.109    1.106   Cg   306      RlB   0.357000
  6575   H2   -1.777    1.542    0.390   H1   306      RlB   0.000000
  6576   C3    0.368    1.240    0.567   Cg   306      RlB   0.259000
  6577   H3    1.063    0.917    1.345   H1   306      RlB   0.000000
  6578   C4    0.607    0.363   -0.684   Cg   306      RlB   0.203000
  6579   H4    1.657    0.428   -0.974   H1   306      RlB   0.000000
  6580   C5    0.248   -1.111   -0.389   Cg   306      RlB   0.140000
  6581   H5    0.934   -1.471    0.381   H1   306      RlB   0.000000
  6582   C6    0.391   -2.026   -1.618   Cg   306      RlB   0.319000
  6583  H61    1.389   -1.930   -2.048   H1   306      RlB   0.000000
  6584  H62   -0.342   -1.766   -2.383   H1   306      RlB   0.000000
  6585   O6    0.188   -3.389   -1.213   Os   306      RlB  -0.468000
  6586   O5   -1.143   -1.202    0.150   Os   306      RlB  -0.402000
  6587   O4   -0.202    0.851   -1.783   Os   306      RlB  -0.421000
  6588   O3    0.677    2.624    0.244   Oh   306      RlB  -0.694000
  6589  H3O    0.473    3.156    1.025   Ho   306      RlB   0.433000
  6590   O2   -1.174    1.844    2.363   Os   306      RlB  -0.488000
  6591   C1   -0.808   -0.699    1.706   Cg   307      RmA   0.433000
  6592   H1   -1.742   -0.878    2.240   H2   307      RmA   0.000000
  6593   O5   -0.891   -1.334    0.383   Os   307      RmA  -0.507000
  6594   C5    0.184   -1.039   -0.617   Cg   307      RmA   0.276000
  6595   H5    1.113   -1.485   -0.255   H1   307      RmA   0.000000
  6596   C6   -0.180   -1.691   -1.968   Cg   307      RmA   0.266000
  6597  H61   -1.199   -1.423   -2.250   H1   307      RmA   0.000000
  6598  H62    0.489   -1.342   -2.754   H1   307      RmA   0.000000
  6599   O6   -0.070   -3.129   -1.894   Os   307      RmA  -0.460000
  6600   C4    0.397    0.486   -0.744   Cg   307      RmA   0.326000
  6601   H4   -0.470    0.944   -1.223   H1   307      RmA   0.000000
  6602   O4    1.569    0.729   -1.566   Os   307      RmA  -0.489000
  6603   C3    0.626    1.123    0.649   Cg   307      RmA   0.252000
  6604   H3    1.537    0.703    1.080   H1   307      RmA   0.000000
  6605   O3    0.819    2.567    0.535   Oh   307      RmA  -0.696000
  6606  H3O    1.237    2.903    1.336   Ho   307      RmA   0.431000
  6607   C2   -0.550    0.832    1.608   Cg   307      RmA   0.245000
  6608   H2   -0.311    1.222    2.598   H1   307      RmA   0.000000
  6609   O2   -1.751    1.512    1.136   Os   307      RmA  -0.465000
  6610   C1   -1.475   -0.405    1.394   Cg   308      RmB   0.314000
  6611   H1   -0.841   -0.705    2.230   H2   308      RmB   0.000000
  6612   C2   -1.250    1.098    1.066   Cg   308      RmB   0.241000
  6613   H2   -1.469    1.705    1.945   H1   308      RmB   0.000000
  6614   C3    0.234    1.264    0.663   Cg   308      RmB   0.263000
  6615   H3    0.849    0.915    1.495   H1   308      RmB   0.000000
  6616   C4    0.560    0.404   -0.589   Cg   308      RmB   0.349000
  6617   H4   -0.015    0.758   -1.445   H1   308      RmB   0.000000
  6618   C5    0.236   -1.088   -0.319   Cg   308      RmB   0.206000
  6619   H5    0.935   -1.469    0.428   H1   308      RmB   0.000000
  6620   C6    0.365   -1.942   -1.593   Cg   308      RmB   0.273000
  6621  H61    1.378   -1.884   -1.991   H1   308      RmB   0.000000
  6622  H62   -0.325   -1.586   -2.359   H1   308      RmB   0.000000
  6623   O6    0.063   -3.316   -1.293   Os   308      RmB  -0.455000
  6624   O5   -1.149   -1.241    0.230   Os   308      RmB  -0.393000
  6625   O4    1.974    0.515   -0.902   Os   308      RmB  -0.497000
  6626   O3    0.560    2.669    0.459   Oh   308      RmB  -0.692000
  6627  H3O    1.500    2.808    0.606   Ho   308      RmB   0.430000
  6628   O2   -2.131    1.502   -0.024   Os   308      RmB  -0.427000
  6629   C1   -0.487   -1.787    0.819   Cg   309      RnA   0.478000
  6630   H1   -1.277   -2.370    1.292   H2   309      RnA   0.000000
  6631   O5   -1.047   -1.125   -0.380   Os   309      RnA  -0.611000
  6632   C5   -0.220   -0.105   -1.082   Cg   309      RnA   0.404000
  6633   H5    0.668   -0.594   -1.486   H1   309      RnA   0.000000
  6634   C6   -1.055    0.455   -2.241   Cg   309      RnA   0.280000
  6635  H61   -1.999    0.862   -1.874   H1   309      RnA   0.000000
  6636  H62   -0.514    1.250   -2.754   H1   309      RnA   0.000000
  6637   O6   -1.322   -0.598   -3.176   Os   309      RnA  -0.461000
  6638   C4    0.217    0.965   -0.056   Cg   309      RnA   0.167000
  6639   H4   -0.669    1.510    0.272   H1   309      RnA   0.000000
  6640   O4    1.102    1.908   -0.687   Os   309      RnA  -0.483000
  6641   C3    0.907    0.379    1.194   Cg   309      RnA   0.330000
  6642   H3    1.093    1.169    1.923   H1   309      RnA   0.000000
  6643   O3    2.169   -0.218    0.821   Oh   309      RnA  -0.714000
  6644  H3O    2.759    0.463    0.490   Ho   309      RnA   0.441000
  6645   C2   -0.013   -0.695    1.805   Cg   309      RnA   0.228000
  6646   H2   -0.910   -0.181    2.155   H1   309      RnA   0.000000
  6647   O2    0.598   -1.288    2.965   Os   309      RnA  -0.447000
  6648   C1   -1.447   -0.352    1.268   Cg   310      RnB   0.422000
  6649   H1   -0.865   -0.757    2.099   H2   310      RnB   0.000000
  6650   C2   -1.143    1.161    1.054   Cg   310      RnB   0.301000
  6651   H2   -1.844    1.561    0.317   H1   310      RnB   0.000000
  6652   C3    0.290    1.363    0.516   Cg   310      RnB   0.234000
  6653   H3    0.449    2.420    0.293   H1   310      RnB   0.000000
  6654   C4    0.495    0.524   -0.766   Cg   310      RnB   0.286000
  6655   H4   -0.202    0.876   -1.529   H1   310      RnB   0.000000
  6656   C5    0.226   -0.977   -0.505   Cg   310      RnB   0.198000
  6657   H5    0.936   -1.346    0.236   H1   310      RnB   0.000000
  6658   C6    0.365   -1.837   -1.776   Cg   310      RnB   0.313000
  6659  H61    1.378   -1.776   -2.173   H1   310      RnB   0.000000
  6660  H62   -0.329   -1.495   -2.543   H1   310      RnB   0.000000
  6661   O6    0.072   -3.207   -1.454   Os   310      RnB  -0.465000
  6662   O5   -1.160   -1.124    0.050   Os   310      RnB  -0.507000
  6663   O4    1.837    0.723   -1.268   Os   310      RnB  -0.471000
  6664   O3    1.255    0.954    1.530   Oh   310      RnB  -0.615000
  6665  H3O    0.992    1.366    2.365   Ho   310      RnB   0.389000
  6666   O2   -1.305    1.924    2.286   Os   310      RnB  -0.473000
  6667   C1   -0.563   -1.746    0.752   Cg   311      RtA   0.456000
  6668   H1   -1.393   -2.256    1.243   H2   311      RtA   0.000000
  6669   O5   -1.089   -1.055   -0.453   Os   311      RtA  -0.480000
  6670   C5   -0.166   -0.153   -1.193   Cg   311      RtA   0.157000
  6671   H5    0.690   -0.742   -1.528   H1   311      RtA   0.000000
  6672   C6   -0.886    0.379   -2.440   Cg   311      RtA   0.304000
  6673  H61   -1.821    0.871   -2.169   H1   311      RtA   0.000000
  6674  H62   -0.255    1.097   -2.963   H1   311      RtA   0.000000
  6675   O6   -1.166   -0.721   -3.317   Os   311      RtA  -0.462000
  6676   C4    0.368    0.936   -0.237   Cg   311      RtA   0.434000
  6677   H4    1.126    1.531   -0.749   H1   311      RtA   0.000000
  6678   O4   -0.720    1.805    0.143   Os   311      RtA  -0.508000
  6679   C3    0.985    0.275    1.013   Cg   311      RtA   0.124000
  6680   H3    1.861   -0.280    0.675   H1   311      RtA   0.000000
  6681   O3    1.464    1.274    1.933   Oh   311      RtA  -0.687000
  6682  H3O    1.891    0.844    2.678   Ho   311      RtA   0.442000
  6683   C2    0.068   -0.738    1.734   Cg   311      RtA   0.245000
  6684   H2    0.634   -1.266    2.502   H1   311      RtA   0.000000
  6685   O2   -1.025   -0.055    2.376   Os   311      RtA  -0.413000
  6686   C1   -1.360   -1.171    0.936   Cg   312      RtB   0.306000
  6687   H1   -0.810   -2.113    0.929   H2   312      RtB   0.000000
  6688   C2   -0.634   -0.166    1.856   Cg   312      RtB   0.340000
  6689   H2   -0.517   -0.590    2.855   H1   312      RtB   0.000000
  6690   C3    0.753    0.156    1.255   Cg   312      RtB   0.174000
  6691   H3    1.339   -0.763    1.307   H1   312      RtB   0.000000
  6692   C4    0.734    0.589   -0.230   Cg   312      RtB   0.314000
  6693   H4    1.756    0.648   -0.607   H1   312      RtB   0.000000
  6694   C5   -0.070   -0.428   -1.074   Cg   312      RtB   0.031000
  6695   H5    0.476   -1.374   -1.051   H1   312      RtB   0.000000
  6696   C6   -0.271   -0.041   -2.545   Cg   312      RtB   0.349000
  6697  H61    0.689    0.186   -3.010   H1   312      RtB   0.000000
  6698  H62   -0.914    0.836   -2.632   H1   312      RtB   0.000000
  6699   O6   -0.875   -1.142   -3.236   Os   312      RtB  -0.454000
  6700   O5   -1.401   -0.647   -0.448   Os   312      RtB  -0.354000
  6701   O4    0.124    1.891   -0.360   Os   312      RtB  -0.407000
  6702   O3    1.443    1.129    2.060   Oh   312      RtB  -0.678000
  6703  H3O    0.958    1.957    2.044   Ho   312      RtB   0.425000
  6704   O2   -1.418    1.043    1.951   Os   312      RtB  -0.434000
  6705   C1   -0.394   -1.821    0.959   Cg   313      SeA   0.480000
  6706   H1   -1.176   -2.386    1.468   H2   313      SeA   0.000000
  6707   O5   -0.988   -1.190   -0.244   Os   313      SeA  -0.587000
  6708   C5   -0.182   -0.192   -0.992   Cg   313      SeA   0.374000
  6709   H5    0.717   -0.679   -1.375   H1   313      SeA   0.000000
  6710   C6   -1.028    0.301   -2.174   Cg   313      SeA   0.259000
  6711  H61   -1.983    0.698   -1.827   H1   313      SeA   0.000000
  6712  H62   -0.504    1.088   -2.717   H1   313      SeA   0.000000
  6713   O6   -1.263   -0.796   -3.067   Os   313      SeA  -0.451000
  6714   C4    0.225    0.920   -0.005   Cg   313      SeA   0.261000
  6715   H4   -0.678    1.437    0.324   H1   313      SeA   0.000000
  6716   O4    1.063    1.882   -0.670   Oh   313      SeA  -0.721000
  6717  H4O    1.876    1.456   -0.953   Ho   313      SeA   0.415000
  6718   C3    0.955    0.384    1.245   Cg   313      SeA   0.328000
  6719   H3    1.124    1.197    1.952   H1   313      SeA   0.000000
  6720   O3    2.238   -0.158    0.872   Os   313      SeA  -0.488000
  6721   C2    0.169   -0.754    1.924   Cg   313      SeA   0.179000
  6722   H2    0.787   -1.231    2.687   H1   313      SeA   0.000000
  6723   O2   -0.956   -0.158    2.591   Os   313      SeA  -0.437000
  6724   C1   -1.584   -0.336    1.396   Cg   314      SeB   0.488000
  6725   H1   -1.029   -0.736    2.245   H2   314      SeB   0.000000
  6726   C2   -1.272    1.181    1.201   Cg   314      SeB   0.184000
  6727   H2   -1.460    1.713    2.135   H1   314      SeB   0.000000
  6728   C3    0.205    1.338    0.797   Cg   314      SeB   0.315000
  6729   H3    0.417    2.389    0.593   H1   314      SeB   0.000000
  6730   C4    0.536    0.496   -0.467   Cg   314      SeB   0.320000
  6731   H4   -0.047    0.880   -1.306   H1   314      SeB   0.000000
  6732   C5    0.175   -0.996   -0.256   Cg   314      SeB   0.257000
  6733   H5    0.817   -1.412    0.522   H1   314      SeB   0.000000
  6734   C6    0.366   -1.823   -1.542   Cg   314      SeB   0.278000
  6735  H61    1.404   -1.784   -1.873   H1   314      SeB   0.000000
  6736  H62   -0.263   -1.428   -2.341   H1   314      SeB   0.000000
  6737   O6    0.007   -3.196   -1.301   Os   314      SeB  -0.463000
  6738   O5   -1.251   -1.113    0.196   Os   314      SeB  -0.532000
  6739   O4    1.946    0.638   -0.808   Oh   314      SeB  -0.724000
  6740  H4O    2.092    1.475   -1.264   Ho   314      SeB   0.420000
  6741   O3    1.031    0.922    1.919   Os   314      SeB  -0.472000
  6742   O2   -2.091    1.792    0.154   Os   314      SeB  -0.459000
  6743   C1   -0.703   -0.589    1.911   Cg   315      SgA   0.509000
  6744   H1   -1.579   -0.750    2.538   H2   315      SgA   0.000000
  6745   O5   -0.932   -1.213    0.608   Os   315      SgA  -0.574000
  6746   C5    0.088   -0.985   -0.468   Cg   315      SgA   0.283000
  6747   H5    1.030   -1.433   -0.148   H1   315      SgA   0.000000
  6748   C6   -0.367   -1.682   -1.771   Cg   315      SgA   0.276000
  6749  H61   -1.405   -1.425   -1.990   H1   315      SgA   0.000000
  6750  H62    0.244   -1.359   -2.614   H1   315      SgA   0.000000
  6751   O6   -0.247   -3.116   -1.655   Os   315      SgA  -0.458000
  6752   C4    0.311    0.530   -0.655   Cg   315      SgA   0.254000
  6753   H4   -0.587    0.978   -1.084   H1   315      SgA   0.000000
  6754   O4    1.418    0.735   -1.570   Oh   315      SgA  -0.710000
  6755  H4O    1.617    1.682   -1.573   Ho   315      SgA   0.436000
  6756   C3    0.638    1.219    0.691   Cg   315      SgA   0.286000
  6757   H3    1.609    0.874    1.053   H1   315      SgA   0.000000
  6758   O3    0.706    2.653    0.473   Os   315      SgA  -0.466000
  6759   C2   -0.434    0.936    1.764   Cg   315      SgA   0.246000
  6760   H2   -1.367    1.407    1.450   H1   315      SgA   0.000000
  6761   O2   -0.040    1.538    3.040   Os   315      SgA  -0.470000
  6762   C1   -1.540   -0.264    1.442   Cg   316      SgB   0.384000
  6763   H1   -0.966   -0.664    2.279   H2   316      SgB   0.000000
  6764   C2   -1.189    1.229    1.187   Cg   316      SgB   0.310000
  6765   H2   -1.887    1.643    0.457   H1   316      SgB   0.000000
  6766   C3    0.254    1.358    0.649   Cg   316      SgB   0.284000
  6767   H3    0.955    1.097    1.445   H1   316      SgB   0.000000
  6768   C4    0.506    0.438   -0.570   Cg   316      SgB   0.276000
  6769   H4   -0.088    0.788   -1.417   H1   316      SgB   0.000000
  6770   C5    0.133   -1.026   -0.255   Cg   316      SgB   0.225000
  6771   H5    0.790   -1.400    0.533   H1   316      SgB   0.000000
  6772   C6    0.265   -1.946   -1.483   Cg   316      SgB   0.282000
  6773  H61    1.295   -1.965   -1.840   H1   316      SgB   0.000000
  6774  H62   -0.372   -1.588   -2.293   H1   316      SgB   0.000000
  6775   O6   -0.131   -3.286   -1.135   Os   316      SgB  -0.458000
  6776   O5   -1.275   -1.070    0.247   Os   316      SgB  -0.471000
  6777   O4    1.907    0.499   -0.928   Oh   316      SgB  -0.714000
  6778  H4O    2.148    1.432   -0.999   Ho   316      SgB   0.440000
  6779   O3    0.496    2.736    0.255   Os   316      SgB  -0.471000
  6780   O2   -1.302    1.988    2.426   Os   316      SgB  -0.475000
  6781   C1   -0.355   -1.830    0.913   Cg   317      SkA   0.473000
  6782   H1   -1.145   -2.363    1.442   H2   317      SkA   0.000000
  6783   O5   -0.956   -1.130   -0.245   Os   317      SkA  -0.540000
  6784   C5   -0.079   -0.207   -1.017   Cg   317      SkA   0.301000
  6785   H5    0.752   -0.789   -1.421   H1   317      SkA   0.000000
  6786   C6   -0.874    0.354   -2.204   Cg   317      SkA   0.287000
  6787  H61   -1.788    0.843   -1.864   H1   317      SkA   0.000000
  6788  H62   -0.274    1.083   -2.750   H1   317      SkA   0.000000
  6789   O6   -1.213   -0.724   -3.088   Os   317      SkA  -0.463000
  6790   C4    0.523    0.863   -0.072   Cg   317      SkA   0.196000
  6791   H4    1.252    1.461   -0.621   H1   317      SkA   0.000000
  6792   O4   -0.524    1.744    0.378   Oh   317      SkA  -0.712000
  6793  H4O   -0.943    2.156   -0.381   Ho   317      SkA   0.420000
  6794   C3    1.184    0.258    1.181   Cg   317      SkA   0.354000
  6795   H3    1.441    1.047    1.889   H1   317      SkA   0.000000
  6796   O3    2.406   -0.375    0.754   Os   317      SkA  -0.502000
  6797   C2    0.257   -0.774    1.859   Cg   317      SkA   0.281000
  6798   H2   -0.581   -0.214    2.278   H1   317      SkA   0.000000
  6799   O2    0.919   -1.405    2.970   Os   317      SkA  -0.483000
  6800   C1   -1.404   -0.413    1.482   Cg   318      SkB   0.449000
  6801   H1   -0.822   -0.844    2.298   H2   318      SkB   0.000000
  6802   C2   -1.099    1.105    1.313   Cg   318      SkB   0.308000
  6803   H2   -1.790    1.523    0.580   H1   318      SkB   0.000000
  6804   C3    0.346    1.311    0.799   Cg   318      SkB   0.253000
  6805   H3    0.507    2.371    0.598   H1   318      SkB   0.000000
  6806   C4    0.626    0.497   -0.484   Cg   318      SkB   0.217000
  6807   H4    1.684    0.573   -0.737   H1   318      SkB   0.000000
  6808   C5    0.263   -1.000   -0.287   Cg   318      SkB   0.303000
  6809   H5    0.950   -1.415    0.454   H1   318      SkB   0.000000
  6810   C6    0.411   -1.832   -1.577   Cg   318      SkB   0.259000
  6811  H61    1.410   -1.703   -1.993   H1   318      SkB   0.000000
  6812  H62   -0.315   -1.510   -2.324   H1   318      SkB   0.000000
  6813   O6    0.204   -3.229   -1.294   Os   318      SkB  -0.448000
  6814   O5   -1.131   -1.147    0.244   Os   318      SkB  -0.514000
  6815   O4   -0.134    1.076   -1.581   Oh   318      SkB  -0.700000
  6816  H4O    0.269    1.903   -1.869   Ho   318      SkB   0.425000
  6817   O3    1.303    0.898    1.810   Os   318      SkB  -0.462000
  6818   O2   -1.277    1.837    2.566   Os   318      SkB  -0.478000
  6819   C1   -0.421   -1.809    0.906   Cg   319      SlA   0.465000
  6820   H1   -1.236   -2.324    1.414   H2   319      SlA   0.000000
  6821   O5   -0.974   -1.101   -0.273   Os   319      SlA  -0.527000
  6822   C5   -0.046   -0.211   -1.025   Cg   319      SlA   0.216000
  6823   H5    0.790   -0.813   -1.386   H1   319      SlA   0.000000
  6824   C6   -0.781    0.350   -2.251   Cg   319      SlA   0.308000
  6825  H61   -1.698    0.862   -1.955   H1   319      SlA   0.000000
  6826  H62   -0.144    1.059   -2.781   H1   319      SlA   0.000000
  6827   O6   -1.105   -0.733   -3.133   Os   319      SlA  -0.460000
  6828   C4    0.528    0.855   -0.067   Cg   319      SlA   0.204000
  6829   H4    1.268    1.461   -0.592   H1   319      SlA   0.000000
  6830   O4   -0.554    1.711    0.363   Oh   319      SlA  -0.673000
  6831  H4O   -0.958    2.125   -0.403   Ho   319      SlA   0.436000
  6832   C3    1.180    0.181    1.160   Cg   319      SlA   0.253000
  6833   H3    2.052   -0.382    0.824   H1   319      SlA   0.000000
  6834   O3    1.629    1.198    2.074   Os   319      SlA  -0.462000
  6835   C2    0.202   -0.774    1.872   Cg   319      SlA   0.339000
  6836   H2   -0.608   -0.191    2.310   H1   319      SlA   0.000000
  6837   O2    0.877   -1.464    2.941   Os   319      SlA  -0.487000
  6838   C1   -1.400   -0.319    1.493   Cg   320      SlB   0.374000
  6839   H1   -0.829   -0.717    2.333   H2   320      SlB   0.000000
  6840   C2   -1.049    1.181    1.258   Cg   320      SlB   0.357000
  6841   H2   -1.750    1.613    0.542   H1   320      SlB   0.000000
  6842   C3    0.395    1.311    0.719   Cg   320      SlB   0.259000
  6843   H3    1.090    0.988    1.497   H1   320      SlB   0.000000
  6844   C4    0.634    0.434   -0.532   Cg   320      SlB   0.203000
  6845   H4    1.684    0.499   -0.822   H1   320      SlB   0.000000
  6846   C5    0.275   -1.039   -0.237   Cg   320      SlB   0.140000
  6847   H5    0.960   -1.399    0.532   H1   320      SlB   0.000000
  6848   C6    0.418   -1.954   -1.466   Cg   320      SlB   0.319000
  6849  H61    1.415   -1.858   -1.896   H1   320      SlB   0.000000
  6850  H62   -0.315   -1.695   -2.231   H1   320      SlB   0.000000
  6851   O6    0.214   -3.318   -1.061   Os   320      SlB  -0.468000
  6852   O5   -1.116   -1.131    0.302   Os   320      SlB  -0.402000
  6853   O4   -0.175    0.922   -1.631   Oh   320      SlB  -0.664000
  6854  H4O   -0.006    1.871   -1.711   Ho   320      SlB   0.437000
  6855   O3    0.703    2.696    0.396   Os   320      SlB  -0.455000
  6856   O2   -1.147    1.915    2.515   Os   320      SlB  -0.488000
  6857   C1   -0.835   -0.634    1.858   Cg   321      SmA   0.433000
  6858   H1   -1.768   -0.814    2.392   H2   321      SmA   0.000000
  6859   O5   -0.917   -1.270    0.535   Os   321      SmA  -0.507000
  6860   C5    0.157   -0.975   -0.465   Cg   321      SmA   0.276000
  6861   H5    1.086   -1.421   -0.104   H1   321      SmA   0.000000
  6862   C6   -0.207   -1.627   -1.816   Cg   321      SmA   0.266000
  6863  H61   -1.226   -1.359   -2.098   H1   321      SmA   0.000000
  6864  H62    0.462   -1.278   -2.603   H1   321      SmA   0.000000
  6865   O6   -0.096   -3.065   -1.742   Os   321      SmA  -0.460000
  6866   C4    0.371    0.551   -0.592   Cg   321      SmA   0.326000
  6867   H4   -0.496    1.009   -1.071   H1   321      SmA   0.000000
  6868   O4    1.543    0.793   -1.414   Oh   321      SmA  -0.733000
  6869  H4O    1.716    1.743   -1.394   Ho   321      SmA   0.438000
  6870   C3    0.599    1.188    0.801   Cg   321      SmA   0.252000
  6871   H3    1.511    0.768    1.232   H1   321      SmA   0.000000
  6872   O3    0.792    2.631    0.687   Os   321      SmA  -0.459000
  6873   C2   -0.576    0.896    1.760   Cg   321      SmA   0.245000
  6874   H2   -0.337    1.287    2.750   H1   321      SmA   0.000000
  6875   O2   -1.778    1.576    1.287   Os   321      SmA  -0.465000
  6876   C1   -1.507   -0.328    1.498   Cg   322      SmB   0.314000
  6877   H1   -0.873   -0.628    2.334   H2   322      SmB   0.000000
  6878   C2   -1.282    1.175    1.170   Cg   322      SmB   0.241000
  6879   H2   -1.502    1.782    2.049   H1   322      SmB   0.000000
  6880   C3    0.202    1.341    0.767   Cg   322      SmB   0.263000
  6881   H3    0.817    0.992    1.599   H1   322      SmB   0.000000
  6882   C4    0.528    0.481   -0.485   Cg   322      SmB   0.349000
  6883   H4   -0.048    0.835   -1.341   H1   322      SmB   0.000000
  6884   C5    0.204   -1.011   -0.215   Cg   322      SmB   0.206000
  6885   H5    0.903   -1.392    0.532   H1   322      SmB   0.000000
  6886   C6    0.333   -1.865   -1.489   Cg   322      SmB   0.273000
  6887  H61    1.346   -1.807   -1.887   H1   322      SmB   0.000000
  6888  H62   -0.358   -1.508   -2.255   H1   322      SmB   0.000000
  6889   O6    0.030   -3.239   -1.189   Os   322      SmB  -0.455000
  6890   O5   -1.182   -1.164    0.334   Os   322      SmB  -0.393000
  6891   O4    1.941    0.592   -0.798   Oh   322      SmB  -0.746000
  6892  H4O    2.084    1.421   -1.266   Ho   322      SmB   0.443000
  6893   O3    0.527    2.746    0.563   Os   322      SmB  -0.456000
  6894   O2   -2.163    1.579    0.080   Os   322      SmB  -0.427000
  6895   C1   -0.441   -1.839    0.897   Cg   323      SnA   0.478000
  6896   H1   -1.231   -2.422    1.370   H2   323      SnA   0.000000
  6897   O5   -1.001   -1.177   -0.302   Os   323      SnA  -0.611000
  6898   C5   -0.174   -0.157   -1.003   Cg   323      SnA   0.404000
  6899   H5    0.714   -0.646   -1.408   H1   323      SnA   0.000000
  6900   C6   -1.010    0.403   -2.163   Cg   323      SnA   0.280000
  6901  H61   -1.953    0.810   -1.796   H1   323      SnA   0.000000
  6902  H62   -0.468    1.198   -2.676   H1   323      SnA   0.000000
  6903   O6   -1.276   -0.650   -3.098   Os   323      SnA  -0.461000
  6904   C4    0.263    0.913    0.022   Cg   323      SnA   0.167000
  6905   H4   -0.624    1.458    0.350   H1   323      SnA   0.000000
  6906   O4    1.148    1.856   -0.609   Oh   323      SnA  -0.733000
  6907  H4O    1.935    1.400   -0.915   Ho   323      SnA   0.444000
  6908   C3    0.953    0.327    1.272   Cg   323      SnA   0.330000
  6909   H3    1.139    1.117    2.001   H1   323      SnA   0.000000
  6910   O3    2.215   -0.270    0.899   Os   323      SnA  -0.467000
  6911   C2    0.033   -0.747    1.883   Cg   323      SnA   0.228000
  6912   H2   -0.864   -0.233    2.233   H1   323      SnA   0.000000
  6913   O2    0.644   -1.340    3.043   Os   323      SnA  -0.447000
  6914   C1   -1.523   -0.320    1.420   Cg   324      SnB   0.422000
  6915   H1   -0.941   -0.726    2.250   H2   324      SnB   0.000000
  6916   C2   -1.219    1.192    1.205   Cg   324      SnB   0.301000
  6917   H2   -1.920    1.593    0.468   H1   324      SnB   0.000000
  6918   C3    0.214    1.394    0.667   Cg   324      SnB   0.234000
  6919   H3    0.373    2.451    0.445   H1   324      SnB   0.000000
  6920   C4    0.419    0.555   -0.615   Cg   324      SnB   0.286000
  6921   H4   -0.278    0.907   -1.378   H1   324      SnB   0.000000
  6922   C5    0.150   -0.945   -0.354   Cg   324      SnB   0.198000
  6923   H5    0.860   -1.314    0.388   H1   324      SnB   0.000000
  6924   C6    0.289   -1.806   -1.625   Cg   324      SnB   0.313000
  6925  H61    1.302   -1.745   -2.022   H1   324      SnB   0.000000
  6926  H62   -0.405   -1.463   -2.392   H1   324      SnB   0.000000
  6927   O6   -0.004   -3.176   -1.302   Os   324      SnB  -0.465000
  6928   O5   -1.236   -1.092    0.202   Os   324      SnB  -0.507000
  6929   O4    1.761    0.754   -1.116   Oh   324      SnB  -0.707000
  6930  H4O    2.360    0.799   -0.359   Ho   324      SnB   0.430000
  6931   O3    1.179    0.985    1.681   Os   324      SnB  -0.420000
  6932   O2   -1.381    1.955    2.437   Os   324      SnB  -0.473000
  6933   C1   -0.406   -1.818    0.927   Cg   325      StA   0.456000
  6934   H1   -1.236   -2.328    1.418   H2   325      StA   0.000000
  6935   O5   -0.932   -1.127   -0.278   Os   325      StA  -0.480000
  6936   C5   -0.009   -0.225   -1.018   Cg   325      StA   0.157000
  6937   H5    0.847   -0.814   -1.354   H1   325      StA   0.000000
  6938   C6   -0.729    0.307   -2.265   Cg   325      StA   0.304000
  6939  H61   -1.664    0.799   -1.994   H1   325      StA   0.000000
  6940  H62   -0.098    1.025   -2.788   H1   325      StA   0.000000
  6941   O6   -1.009   -0.793   -3.142   Os   325      StA  -0.462000
  6942   C4    0.525    0.864   -0.062   Cg   325      StA   0.434000
  6943   H4    1.283    1.459   -0.574   H1   325      StA   0.000000
  6944   O4   -0.563    1.733    0.317   Oh   325      StA  -0.731000
  6945  H4O   -0.937    2.139   -0.468   Ho   325      StA   0.417000
  6946   C3    1.142    0.203    1.188   Cg   325      StA   0.124000
  6947   H3    2.018   -0.352    0.850   H1   325      StA   0.000000
  6948   O3    1.621    1.202    2.107   Os   325      StA  -0.439000
  6949   C2    0.225   -0.810    1.908   Cg   325      StA   0.245000
  6950   H2    0.792   -1.338    2.676   H1   325      StA   0.000000
  6951   O2   -0.868   -0.127    2.551   Os   325      StA  -0.413000
  6952   C1   -1.316   -1.181    1.111   Cg   326      StB   0.306000
  6953   H1   -0.766   -2.123    1.104   H2   326      StB   0.000000
  6954   C2   -0.590   -0.176    2.032   Cg   326      StB   0.340000
  6955   H2   -0.473   -0.600    3.030   H1   326      StB   0.000000
  6956   C3    0.797    0.146    1.430   Cg   326      StB   0.174000
  6957   H3    1.383   -0.773    1.482   H1   326      StB   0.000000
  6958   C4    0.778    0.579   -0.055   Cg   326      StB   0.314000
  6959   H4    1.800    0.637   -0.431   H1   326      StB   0.000000
  6960   C5   -0.026   -0.438   -0.898   Cg   326      StB   0.031000
  6961   H5    0.520   -1.384   -0.876   H1   326      StB   0.000000
  6962   C6   -0.227   -0.051   -2.370   Cg   326      StB   0.349000
  6963  H61    0.733    0.176   -2.835   H1   326      StB   0.000000
  6964  H62   -0.870    0.826   -2.457   H1   326      StB   0.000000
  6965   O6   -0.831   -1.153   -3.061   Os   326      StB  -0.454000
  6966   O5   -1.357   -0.658   -0.273   Os   326      StB  -0.354000
  6967   O4    0.168    1.880   -0.185   Oh   326      StB  -0.626000
  6968  H4O    0.165    2.141   -1.109   Ho   326      StB   0.413000
  6969   O3    1.487    1.118    2.236   Os   326      StB  -0.447000
  6970   O2   -1.373    1.033    2.126   Os   326      StB  -0.434000
  6971   C1   -0.862   -1.511    0.350   Cg   327      TaA   0.448000
  6972   H1   -1.782   -1.901    0.789   H2   327      TaA   0.000000
  6973   O5   -1.206   -0.844   -0.930   Os   327      TaA  -0.564000
  6974   C5   -0.156   -0.042   -1.595   Cg   327      TaA   0.379000
  6975  H5A    0.661   -0.697   -1.901   H1   327      TaA   0.000000
  6976  H5E   -0.574    0.424   -2.488   H1   327      TaA   0.000000
  6977   C4    0.336    1.027   -0.614   Cg   327      TaA   0.245000
  6978   H4   -0.491    1.706   -0.405   H1   327      TaA   0.000000
  6979   O4    1.382    1.789   -1.239   Os   327      TaA  -0.508000
  6980   C3    0.834    0.434    0.721   Cg   327      TaA   0.335000
  6981   H3    1.072    1.239    1.418   H1   327      TaA   0.000000
  6982   O3    2.030   -0.339    0.502   Os   327      TaA  -0.505000
  6983   C2   -0.210   -0.518    1.341   Cg   327      TaA   0.268000
  6984   H2    0.235   -1.063    2.176   H1   327      TaA   0.000000
  6985   O2   -1.268    0.296    1.874   Os   327      TaA  -0.486000
  6986   C1   -1.386   -0.669    0.895   Cg   328      TaB   0.379000
  6987   H1   -0.850   -1.074    1.754   H2   328      TaB   0.000000
  6988   C2   -1.050    0.848    0.719   Cg   328      TaB   0.300000
  6989   H2   -1.232    1.371    1.659   H1   328      TaB   0.000000
  6990   C3    0.429    1.002    0.308   Cg   328      TaB   0.297000
  6991   H3    0.639    2.049    0.086   H1   328      TaB   0.000000
  6992   C4    0.766    0.138   -0.935   Cg   328      TaB   0.224000
  6993   H4    0.191    0.504   -1.787   H1   328      TaB   0.000000
  6994   C5    0.390   -1.344   -0.701   Cg   328      TaB   0.356000
  6995  H5A    1.020   -1.781    0.075   H1   328      TaB   0.000000
  6996  H5E    0.540   -1.915   -1.617   H1   328      TaB   0.000000
  6997   O5   -1.034   -1.453   -0.293   Os   328      TaB  -0.529000
  6998   O4    2.179    0.258   -1.270   Os   328      TaB  -0.484000
  6999   O3    1.272    0.601    1.423   Os   328      TaB  -0.455000
  7000   O2   -1.873    1.466   -0.316   Os   328      TaB  -0.476000
  7001   C1   -0.493   -1.069   -1.332   Cg   329      TdA   0.398000
  7002   H1   -0.249   -1.408   -2.338   H2   329      TdA   0.000000
  7003   O5    0.466   -1.673   -0.395   Os   329      TdA  -0.487000
  7004   C5    0.484   -1.157    1.002   Cg   329      TdA   0.275000
  7005  H5A   -0.424   -1.495    1.508   H1   329      TdA   0.000000
  7006  H5E    1.336   -1.587    1.527   H1   329      TdA   0.000000
  7007   C4    0.561    0.383    1.040   Cg   329      TdA   0.351000
  7008   H4    1.540    0.714    0.688   H1   329      TdA   0.000000
  7009   O4    0.382    0.818    2.408   Os   329      TdA  -0.483000
  7010   C3   -0.557    0.997    0.168   Cg   329      TdA   0.184000
  7011   H3   -1.522    0.684    0.569   H1   329      TdA   0.000000
  7012   O3   -0.522    2.454    0.228   Os   329      TdA  -0.432000
  7013   C2   -0.463    0.489   -1.293   Cg   329      TdA   0.246000
  7014   H2   -1.305    0.882   -1.865   H1   329      TdA   0.000000
  7015   O2    0.765    0.969   -1.916   Os   329      TdA  -0.440000
  7016   C1    1.347   -0.871    0.810   Cg   330      TdB   0.448000
  7017   H1    1.673   -1.417   -0.076   H2   330      TdB   0.000000
  7018   C2    1.293    0.639    0.495   Cg   330      TdB   0.226000
  7019   H2    2.276    0.994    0.181   H1   330      TdB   0.000000
  7020   C3    0.258    0.884   -0.623   Cg   330      TdB   0.201000
  7021   H3    0.627    0.412   -1.536   H1   330      TdB   0.000000
  7022   C4   -1.129    0.303   -0.279   Cg   330      TdB   0.335000
  7023   H4   -1.595    0.882    0.519   H1   330      TdB   0.000000
  7024   C5   -1.041   -1.175    0.141   Cg   330      TdB   0.275000
  7025  H5A   -0.783   -1.802   -0.715   H1   330      TdB   0.000000
  7026  H5E   -2.001   -1.513    0.532   H1   330      TdB   0.000000
  7027   O5   -0.005   -1.345    1.184   Os   330      TdB  -0.519000
  7028   O4   -1.957    0.360   -1.451   Os   330      TdB  -0.467000
  7029   O3    0.148    2.299   -0.869   Os   330      TdB  -0.463000
  7030   O2    0.889    1.349    1.687   Os   330      TdB  -0.424000
  7031   C1   -0.273   -1.684    1.087   Cg   331      TeA   0.480000
  7032   H1   -1.055   -2.250    1.596   H2   331      TeA   0.000000
  7033   O5   -0.867   -1.054   -0.116   Os   331      TeA  -0.587000
  7034   C5   -0.061   -0.055   -0.864   Cg   331      TeA   0.374000
  7035   H5    0.838   -0.543   -1.247   H1   331      TeA   0.000000
  7036   C6   -0.907    0.438   -2.046   Cg   331      TeA   0.259000
  7037  H61   -1.862    0.834   -1.699   H1   331      TeA   0.000000
  7038  H62   -0.383    1.225   -2.589   H1   331      TeA   0.000000
  7039   O6   -1.142   -0.660   -2.939   Oh   331      TeA  -0.663000
  7040  H6O   -0.302   -1.000   -3.255   Ho   331      TeA   0.406000
  7041   C4    0.346    1.057    0.123   Cg   331      TeA   0.261000
  7042   H4   -0.557    1.574    0.452   H1   331      TeA   0.000000
  7043   O4    1.184    2.019   -0.542   Os   331      TeA  -0.500000
  7044   C3    1.076    0.521    1.373   Cg   331      TeA   0.328000
  7045   H3    1.245    1.334    2.080   H1   331      TeA   0.000000
  7046   O3    2.359   -0.022    1.000   Os   331      TeA  -0.488000
  7047   C2    0.290   -0.617    2.052   Cg   331      TeA   0.179000
  7048   H2    0.908   -1.094    2.815   H1   331      TeA   0.000000
  7049   O2   -0.835   -0.022    2.719   Os   331      TeA  -0.437000
  7050   C1   -1.428   -0.089    1.377   Cg   332      TeB   0.488000
  7051   H1   -0.873   -0.489    2.225   H2   332      TeB   0.000000
  7052   C2   -1.117    1.427    1.182   Cg   332      TeB   0.184000
  7053   H2   -1.304    1.959    2.115   H1   332      TeB   0.000000
  7054   C3    0.361    1.584    0.777   Cg   332      TeB   0.315000
  7055   H3    0.572    2.635    0.574   H1   332      TeB   0.000000
  7056   C4    0.692    0.742   -0.486   Cg   332      TeB   0.320000
  7057   H4    0.109    1.126   -1.325   H1   332      TeB   0.000000
  7058   C5    0.331   -0.749   -0.276   Cg   332      TeB   0.257000
  7059   H5    0.973   -1.166    0.503   H1   332      TeB   0.000000
  7060   C6    0.522   -1.577   -1.562   Cg   332      TeB   0.278000
  7061  H61    1.560   -1.538   -1.892   H1   332      TeB   0.000000
  7062  H62   -0.108   -1.181   -2.360   H1   332      TeB   0.000000
  7063   O6    0.162   -2.949   -1.321   Oh   332      TeB  -0.677000
  7064  H6O   -0.709   -2.962   -0.913   Ho   332      TeB   0.408000
  7065   O5   -1.095   -0.866    0.177   Os   332      TeB  -0.532000
  7066   O4    2.101    0.885   -0.827   Os   332      TeB  -0.498000
  7067   O3    1.186    1.168    1.900   Os   332      TeB  -0.472000
  7068   O2   -1.935    2.038    0.135   Os   332      TeB  -0.459000
  7069   C1   -0.632   -0.846   -1.661   Cg   333      TfA   0.399000
  7070   H1   -0.308   -1.253   -2.619   H2   333      TfA   0.000000
  7071   O5    0.273   -1.346   -0.613   Os   333      TfA  -0.494000
  7072   C5    0.106   -0.767    0.755   Cg   333      TfA   0.187000
  7073   H5   -0.861   -1.098    1.138   H1   333      TfA   0.000000
  7074   C6    1.180   -1.378    1.659   Cg   333      TfA   0.065000
  7075  H61    2.188   -1.150    1.308   Hc   333      TfA   0.000000
  7076  H62    1.089   -2.465    1.700   Hc   333      TfA   0.000000
  7077  H63    1.095   -1.009    2.681   Hc   333      TfA   0.000000
  7078   C4    0.078    0.786    0.722   Cg   333      TfA   0.263000
  7079   H4   -0.220    1.152    1.706   H1   333      TfA   0.000000
  7080   O4    1.400    1.309    0.428   Os   333      TfA  -0.486000
  7081   C3   -0.925    1.311   -0.335   Cg   333      TfA   0.228000
  7082   H3   -1.930    0.999   -0.046   H1   333      TfA   0.000000
  7083   O3   -0.903    2.775   -0.336   Os   333      TfA  -0.461000
  7084   C2   -0.587    0.718   -1.726   Cg   333      TfA   0.456000
  7085   H2    0.429    1.008   -1.999   H1   333      TfA   0.000000
  7086   O2   -1.473    1.253   -2.760   Os   333      TfA  -0.545000
  7087   C1   -1.125   -1.312    0.986   Cg   334      TfB   0.418000
  7088   H1   -0.530   -2.223    0.905   H2   334      TfB   0.000000
  7089   C2   -0.443   -0.308    1.941   Cg   334      TfB   0.346000
  7090   H2   -1.144    0.483    2.216   H1   334      TfB   0.000000
  7091   C3    0.827    0.307    1.319   Cg   334      TfB   0.255000
  7092   H3    1.596   -0.464    1.247   H1   334      TfB   0.000000
  7093   C4    0.589    0.871   -0.097   Cg   334      TfB   0.229000
  7094   H4    1.532    1.218   -0.522   H1   334      TfB   0.000000
  7095   C5   -0.021   -0.225   -0.995   Cg   334      TfB   0.106000
  7096   H5    0.688   -1.053   -1.054   H1   334      TfB   0.000000
  7097   C6   -0.350    0.200   -2.429   Cg   334      TfB   0.092000
  7098  H61   -0.729   -0.641   -3.012   Hc   334      TfB   0.000000
  7099  H62   -1.107    0.985   -2.460   Hc   334      TfB   0.000000
  7100  H63    0.536    0.576   -2.942   Hc   334      TfB   0.000000
  7101   O5   -1.265   -0.723   -0.364   Os   334      TfB  -0.442000
  7102   O4   -0.333    1.982   -0.031   Os   334      TfB  -0.430000
  7103   O3    1.329    1.355    2.170   Os   334      TfB  -0.443000
  7104   O2   -0.050   -1.029    3.122   Os   334      TfB  -0.519000
  7105   C1   -0.653   -0.323    1.921   Cg   335      TgA   0.509000
  7106   H1   -1.529   -0.484    2.549   H2   335      TgA   0.000000
  7107   O5   -0.883   -0.946    0.618   Os   335      TgA  -0.574000
  7108   C5    0.137   -0.719   -0.458   Cg   335      TgA   0.283000
  7109   H5    1.080   -1.167   -0.137   H1   335      TgA   0.000000
  7110   C6   -0.317   -1.416   -1.761   Cg   335      TgA   0.276000
  7111  H61   -1.355   -1.158   -1.979   H1   335      TgA   0.000000
  7112  H62    0.294   -1.093   -2.603   H1   335      TgA   0.000000
  7113   O6   -0.198   -2.850   -1.644   Oh   335      TgA  -0.682000
  7114  H6O    0.720   -3.109   -1.760   Ho   335      TgA   0.418000
  7115   C4    0.361    0.796   -0.645   Cg   335      TgA   0.254000
  7116   H4   -0.538    1.244   -1.074   H1   335      TgA   0.000000
  7117   O4    1.468    1.001   -1.560   Os   335      TgA  -0.468000
  7118   C3    0.688    1.485    0.701   Cg   335      TgA   0.286000
  7119   H3    1.659    1.140    1.063   H1   335      TgA   0.000000
  7120   O3    0.756    2.919    0.483   Os   335      TgA  -0.466000
  7121   C2   -0.384    1.203    1.774   Cg   335      TgA   0.246000
  7122   H2   -1.317    1.673    1.460   H1   335      TgA   0.000000
  7123   O2    0.010    1.804    3.050   Os   335      TgA  -0.470000
  7124   C1   -1.373   -0.017    1.428   Cg   336      TgB   0.384000
  7125   H1   -0.799   -0.417    2.265   H2   336      TgB   0.000000
  7126   C2   -1.023    1.475    1.173   Cg   336      TgB   0.310000
  7127   H2   -1.721    1.889    0.443   H1   336      TgB   0.000000
  7128   C3    0.420    1.604    0.635   Cg   336      TgB   0.284000
  7129   H3    1.121    1.343    1.431   H1   336      TgB   0.000000
  7130   C4    0.672    0.684   -0.584   Cg   336      TgB   0.276000
  7131   H4    0.078    1.034   -1.431   H1   336      TgB   0.000000
  7132   C5    0.299   -0.779   -0.268   Cg   336      TgB   0.225000
  7133   H5    0.956   -1.154    0.520   H1   336      TgB   0.000000
  7134   C6    0.431   -1.700   -1.497   Cg   336      TgB   0.282000
  7135  H61    1.461   -1.719   -1.854   H1   336      TgB   0.000000
  7136  H62   -0.206   -1.341   -2.307   H1   336      TgB   0.000000
  7137   O6    0.035   -3.040   -1.148   Oh   336      TgB  -0.688000
  7138  H6O   -0.841   -3.001   -0.752   Ho   336      TgB   0.424000
  7139   O5   -1.109   -0.824    0.233   Os   336      TgB  -0.471000
  7140   O4    2.074    0.745   -0.942   Os   336      TgB  -0.468000
  7141   O3    0.662    2.983    0.241   Os   336      TgB  -0.471000
  7142   O2   -1.136    2.235    2.413   Os   336      TgB  -0.475000
  7143   C1   -0.479   -0.879   -1.717   Cg   337      ThA   0.394000
  7144   H1   -0.044   -1.255   -2.643   H2   337      ThA   0.000000
  7145   O5    0.360   -1.325   -0.591   Os   337      ThA  -0.461000
  7146   C5    0.080   -0.757    0.754   Cg   337      ThA   0.279000
  7147   H5   -0.894   -1.127    1.082   H1   337      ThA   0.000000
  7148   C6    1.149   -1.311    1.697   Cg   337      ThA   0.023000
  7149  H61    2.149   -0.982    1.411   Hc   337      ThA   0.000000
  7150  H62    1.150   -2.402    1.699   Hc   337      ThA   0.000000
  7151  H63    0.980   -0.990    2.725   Hc   337      ThA   0.000000
  7152   C4    0.036    0.790    0.696   Cg   337      ThA   0.187000
  7153   H4    1.034    1.181    0.494   H1   337      ThA   0.000000
  7154   O4   -0.422    1.311    1.976   Os   337      ThA  -0.433000
  7155   C3   -0.939    1.259   -0.407   Cg   337      ThA   0.236000
  7156   H3   -1.949    0.939   -0.144   H1   337      ThA   0.000000
  7157   O3   -0.938    2.709   -0.478   Os   337      ThA  -0.418000
  7158   C2   -0.587    0.669   -1.792   Cg   337      ThA   0.248000
  7159   H2   -1.361    0.947   -2.510   H1   337      ThA   0.000000
  7160   O2    0.676    1.224   -2.255   Os   337      ThA  -0.443000
  7161   C1   -1.978   -0.030   -0.323   Cg   338      ThB   0.381000
  7162   H1   -2.091    0.994   -0.681   H2   338      ThB   0.000000
  7163   C2   -1.223   -0.866   -1.375   Cg   338      ThB   0.243000
  7164   H2   -1.770   -0.869   -2.319   H1   338      ThB   0.000000
  7165   C3    0.183   -0.265   -1.578   Cg   338      ThB   0.182000
  7166   H3    0.065    0.726   -2.020   H1   338      ThB   0.000000
  7167   C4    0.971   -0.137   -0.258   Cg   338      ThB   0.388000
  7168   H4    1.267   -1.127    0.097   H1   338      ThB   0.000000
  7169   C5    0.157    0.589    0.839   Cg   338      ThB   0.172000
  7170   H5    0.044    1.641    0.566   H1   338      ThB   0.000000
  7171  C6M    0.779    0.515    2.235   Cg   338      ThB   0.039000
  7172  H3M    1.764    0.984    2.259   Hc   338      ThB   0.000000
  7173  H2M    0.898   -0.517    2.569   Hc   338      ThB   0.000000
  7174  H1M    0.160    1.029    2.972   Hc   338      ThB   0.000000
  7175   O5   -1.198   -0.006    0.934   Os   338      ThB  -0.427000
  7176   O4    2.150    0.645   -0.516   Os   338      ThB  -0.490000
  7177   O3    0.918   -1.082   -2.508   Os   338      ThB  -0.441000
  7178   O2   -1.098   -2.224   -0.893   Os   338      ThB  -0.435000
  7179   C1   -0.383   -1.656    1.072   Cg   339      TkA   0.473000
  7180   H1   -1.173   -2.189    1.601   H2   339      TkA   0.000000
  7181   O5   -0.984   -0.956   -0.086   Os   339      TkA  -0.540000
  7182   C5   -0.107   -0.033   -0.858   Cg   339      TkA   0.301000
  7183   H5    0.724   -0.615   -1.263   H1   339      TkA   0.000000
  7184   C6   -0.902    0.528   -2.046   Cg   339      TkA   0.287000
  7185  H61   -1.816    1.017   -1.705   H1   339      TkA   0.000000
  7186  H62   -0.303    1.256   -2.591   H1   339      TkA   0.000000
  7187   O6   -1.241   -0.550   -2.929   Oh   339      TkA  -0.691000
  7188  H6O   -0.438   -0.973   -3.240   Ho   339      TkA   0.422000
  7189   C4    0.495    1.037    0.086   Cg   339      TkA   0.196000
  7190   H4    1.224    1.635   -0.462   H1   339      TkA   0.000000
  7191   O4   -0.552    1.918    0.537   Os   339      TkA  -0.486000
  7192   C3    1.156    0.432    1.340   Cg   339      TkA   0.354000
  7193   H3    1.413    1.221    2.048   H1   339      TkA   0.000000
  7194   O3    2.377   -0.201    0.913   Os   339      TkA  -0.502000
  7195   C2    0.229   -0.600    2.018   Cg   339      TkA   0.281000
  7196   H2   -0.609   -0.040    2.436   H1   339      TkA   0.000000
  7197   O2    0.891   -1.231    3.129   Os   339      TkA  -0.483000
  7198   C1   -1.354   -0.137    1.432   Cg   340      TkB   0.449000
  7199   H1   -0.772   -0.569    2.248   H2   340      TkB   0.000000
  7200   C2   -1.050    1.380    1.262   Cg   340      TkB   0.308000
  7201   H2   -1.741    1.799    0.529   H1   340      TkB   0.000000
  7202   C3    0.395    1.586    0.749   Cg   340      TkB   0.253000
  7203   H3    0.556    2.647    0.547   H1   340      TkB   0.000000
  7204   C4    0.675    0.772   -0.534   Cg   340      TkB   0.217000
  7205   H4    1.733    0.849   -0.788   H1   340      TkB   0.000000
  7206   C5    0.313   -0.725   -0.337   Cg   340      TkB   0.303000
  7207   H5    0.999   -1.140    0.404   H1   340      TkB   0.000000
  7208   C6    0.460   -1.556   -1.628   Cg   340      TkB   0.259000
  7209  H61    1.460   -1.427   -2.044   H1   340      TkB   0.000000
  7210  H62   -0.265   -1.235   -2.375   H1   340      TkB   0.000000
  7211   O6    0.253   -2.954   -1.345   Oh   340      TkB  -0.670000
  7212  H6O   -0.621   -3.056   -0.956   Ho   340      TkB   0.416000
  7213   O5   -1.082   -0.872    0.193   Os   340      TkB  -0.514000
  7214   O4   -0.085    1.352   -1.632   Os   340      TkB  -0.469000
  7215   O3    1.352    1.173    1.760   Os   340      TkB  -0.462000
  7216   O2   -1.228    2.112    2.515   Os   340      TkB  -0.478000
  7217   C1   -0.456   -1.635    1.064   Cg   341      TlA   0.465000
  7218   H1   -1.271   -2.150    1.572   H2   341      TlA   0.000000
  7219   O5   -1.009   -0.927   -0.115   Os   341      TlA  -0.527000
  7220   C5   -0.081   -0.037   -0.867   Cg   341      TlA   0.216000
  7221   H5    0.755   -0.639   -1.228   H1   341      TlA   0.000000
  7222   C6   -0.815    0.524   -2.093   Cg   341      TlA   0.308000
  7223  H61   -1.732    1.036   -1.797   H1   341      TlA   0.000000
  7224  H62   -0.179    1.233   -2.623   H1   341      TlA   0.000000
  7225   O6   -1.140   -0.559   -2.975   Oh   341      TlA  -0.684000
  7226  H6O   -0.333   -1.003   -3.247   Ho   341      TlA   0.418000
  7227   C4    0.493    1.029    0.091   Cg   341      TlA   0.204000
  7228   H4    1.233    1.634   -0.434   H1   341      TlA   0.000000
  7229   O4   -0.589    1.885    0.521   Os   341      TlA  -0.431000
  7230   C3    1.145    0.355    1.318   Cg   341      TlA   0.253000
  7231   H3    2.017   -0.209    0.982   H1   341      TlA   0.000000
  7232   O3    1.595    1.372    2.232   Os   341      TlA  -0.462000
  7233   C2    0.168   -0.601    2.030   Cg   341      TlA   0.339000
  7234   H2   -0.643   -0.017    2.468   H1   341      TlA   0.000000
  7235   O2    0.842   -1.290    3.099   Os   341      TlA  -0.487000
  7236   C1   -1.366   -0.043    1.438   Cg   342      TlB   0.374000
  7237   H1   -0.794   -0.441    2.278   H2   342      TlB   0.000000
  7238   C2   -1.015    1.457    1.203   Cg   342      TlB   0.357000
  7239   H2   -1.716    1.890    0.487   H1   342      TlB   0.000000
  7240   C3    0.429    1.587    0.664   Cg   342      TlB   0.259000
  7241   H3    1.124    1.265    1.442   H1   342      TlB   0.000000
  7242   C4    0.668    0.711   -0.587   Cg   342      TlB   0.203000
  7243   H4    1.718    0.776   -0.877   H1   342      TlB   0.000000
  7244   C5    0.309   -0.763   -0.292   Cg   342      TlB   0.140000
  7245   H5    0.995   -1.123    0.478   H1   342      TlB   0.000000
  7246   C6    0.452   -1.678   -1.521   Cg   342      TlB   0.319000
  7247  H61    1.450   -1.582   -1.951   H1   342      TlB   0.000000
  7248  H62   -0.281   -1.418   -2.286   H1   342      TlB   0.000000
  7249   O6    0.249   -3.042   -1.116   Oh   342      TlB  -0.693000
  7250  H6O   -0.626   -3.104   -0.723   Ho   342      TlB   0.419000
  7251   O5   -1.082   -0.854    0.247   Os   342      TlB  -0.402000
  7252   O4   -0.141    1.199   -1.686   Os   342      TlB  -0.421000
  7253   O3    0.738    2.972    0.341   Os   342      TlB  -0.455000
  7254   O2   -1.113    2.192    2.460   Os   342      TlB  -0.488000
  7255   C1   -0.788   -0.368    1.875   Cg   343      TmA   0.433000
  7256   H1   -1.722   -0.547    2.409   H2   343      TmA   0.000000
  7257   O5   -0.871   -1.003    0.552   Os   343      TmA  -0.507000
  7258   C5    0.204   -0.708   -0.448   Cg   343      TmA   0.276000
  7259   H5    1.133   -1.154   -0.087   H1   343      TmA   0.000000
  7260   C6   -0.160   -1.360   -1.799   Cg   343      TmA   0.266000
  7261  H61   -1.179   -1.093   -2.082   H1   343      TmA   0.000000
  7262  H62    0.509   -1.011   -2.586   H1   343      TmA   0.000000
  7263   O6   -0.050   -2.798   -1.726   Oh   343      TmA  -0.688000
  7264  H6O    0.875   -3.054   -1.699   Ho   343      TmA   0.422000
  7265   C4    0.417    0.817   -0.576   Cg   343      TmA   0.326000
  7266   H4   -0.450    1.275   -1.054   H1   343      TmA   0.000000
  7267   O4    1.590    1.060   -1.397   Os   343      TmA  -0.489000
  7268   C3    0.646    1.454    0.818   Cg   343      TmA   0.252000
  7269   H3    1.557    1.034    1.249   H1   343      TmA   0.000000
  7270   O3    0.839    2.898    0.704   Os   343      TmA  -0.459000
  7271   C2   -0.530    1.163    1.777   Cg   343      TmA   0.245000
  7272   H2   -0.291    1.553    2.767   H1   343      TmA   0.000000
  7273   O2   -1.731    1.843    1.304   Os   343      TmA  -0.465000
  7274   C1   -1.353   -0.080    1.473   Cg   344      TmB   0.314000
  7275   H1   -0.719   -0.381    2.309   H2   344      TmB   0.000000
  7276   C2   -1.128    1.422    1.145   Cg   344      TmB   0.241000
  7277   H2   -1.347    2.030    2.025   H1   344      TmB   0.000000
  7278   C3    0.356    1.588    0.742   Cg   344      TmB   0.263000
  7279   H3    0.971    1.239    1.574   H1   344      TmB   0.000000
  7280   C4    0.682    0.728   -0.510   Cg   344      TmB   0.349000
  7281   H4    0.107    1.082   -1.366   H1   344      TmB   0.000000
  7282   C5    0.358   -0.764   -0.240   Cg   344      TmB   0.206000
  7283   H5    1.057   -1.144    0.507   H1   344      TmB   0.000000
  7284   C6    0.487   -1.618   -1.514   Cg   344      TmB   0.273000
  7285  H61    1.500   -1.560   -1.912   H1   344      TmB   0.000000
  7286  H62   -0.204   -1.261   -2.280   H1   344      TmB   0.000000
  7287   O6    0.185   -2.992   -1.213   Oh   344      TmB  -0.680000
  7288  H6O   -0.692   -3.031   -0.819   Ho   344      TmB   0.419000
  7289   O5   -1.027   -0.917    0.309   Os   344      TmB  -0.393000
  7290   O4    2.096    0.839   -0.823   Os   344      TmB  -0.497000
  7291   O3    0.681    2.993    0.538   Os   344      TmB  -0.456000
  7292   O2   -2.009    1.826    0.055   Os   344      TmB  -0.427000
  7293   C1   -0.316   -1.712    1.030   Cg   345      TnA   0.478000
  7294   H1   -1.106   -2.296    1.502   H2   345      TnA   0.000000
  7295   O5   -0.876   -1.051   -0.169   Os   345      TnA  -0.611000
  7296   C5   -0.049   -0.031   -0.871   Cg   345      TnA   0.404000
  7297   H5    0.839   -0.520   -1.276   H1   345      TnA   0.000000
  7298   C6   -0.884    0.530   -2.030   Cg   345      TnA   0.280000
  7299  H61   -1.828    0.936   -1.664   H1   345      TnA   0.000000
  7300  H62   -0.342    1.324   -2.543   H1   345      TnA   0.000000
  7301   O6   -1.151   -0.524   -2.966   Oh   345      TnA  -0.663000
  7302  H6O   -0.322   -0.872   -3.301   Ho   345      TnA   0.396000
  7303   C4    0.388    1.039    0.155   Cg   345      TnA   0.167000
  7304   H4   -0.498    1.584    0.483   H1   345      TnA   0.000000
  7305   O4    1.273    1.982   -0.477   Os   345      TnA  -0.483000
  7306   C3    1.078    0.453    1.404   Cg   345      TnA   0.330000
  7307   H3    1.264    1.244    2.133   H1   345      TnA   0.000000
  7308   O3    2.340   -0.144    1.032   Os   345      TnA  -0.467000
  7309   C2    0.158   -0.621    2.016   Cg   345      TnA   0.228000
  7310   H2   -0.738   -0.107    2.366   H1   345      TnA   0.000000
  7311   O2    0.770   -1.214    3.176   Os   345      TnA  -0.447000
  7312   C1   -1.356   -0.111    1.442   Cg   346      TnB   0.422000
  7313   H1   -0.774   -0.516    2.273   H2   346      TnB   0.000000
  7314   C2   -1.052    1.402    1.228   Cg   346      TnB   0.301000
  7315   H2   -1.753    1.803    0.491   H1   346      TnB   0.000000
  7316   C3    0.381    1.604    0.690   Cg   346      TnB   0.234000
  7317   H3    0.540    2.661    0.467   H1   346      TnB   0.000000
  7318   C4    0.586    0.765   -0.592   Cg   346      TnB   0.286000
  7319   H4   -0.111    1.117   -1.355   H1   346      TnB   0.000000
  7320   C5    0.317   -0.736   -0.331   Cg   346      TnB   0.198000
  7321   H5    1.027   -1.104    0.410   H1   346      TnB   0.000000
  7322   C6    0.456   -1.596   -1.602   Cg   346      TnB   0.313000
  7323  H61    1.470   -1.535   -1.999   H1   346      TnB   0.000000
  7324  H62   -0.238   -1.253   -2.369   H1   346      TnB   0.000000
  7325   O6    0.163   -2.966   -1.280   Oh   346      TnB  -0.689000
  7326  H6O   -0.652   -2.978   -0.769   Ho   346      TnB   0.418000
  7327   O5   -1.068   -0.882    0.225   Os   346      TnB  -0.507000
  7328   O4    1.929    0.964   -1.094   Os   346      TnB  -0.471000
  7329   O3    1.346    1.195    1.704   Os   346      TnB  -0.420000
  7330   O2   -1.213    2.165    2.460   Os   346      TnB  -0.473000
  7331   C1   -0.576   -0.646    1.760   Cg   347      ToA   0.305000
  7332   H1   -1.459   -0.825    2.372   H2   347      ToA   0.000000
  7333   O5   -0.750   -1.335    0.472   Os   347      ToA  -0.424000
  7334   C5    0.225   -1.021   -0.645   Cg   347      ToA   0.054000
  7335   H5    1.211   -1.376   -0.337   H1   347      ToA   0.000000
  7336   C6   -0.086   -1.643   -2.048    C   347      ToA   0.896000
  7337  O6B   -1.247   -1.490   -2.500   O2   347      ToA  -0.822000
  7338  O6A    0.877   -2.163   -2.655   O2   347      ToA  -0.822000
  7339   C4    0.286    0.504   -0.845   Cg   347      ToA   0.267000
  7340   H4    1.026    0.743   -1.610   H1   347      ToA   0.000000
  7341   O4   -1.024    0.939   -1.307   Os   347      ToA  -0.469000
  7342   C3    0.679    1.192    0.488   Cg   347      ToA   0.251000
  7343   H3    1.633    0.774    0.815   H1   347      ToA   0.000000
  7344   O3    0.887    2.627    0.317   Os   347      ToA  -0.503000
  7345   C2   -0.379    0.894    1.578   Cg   347      ToA   0.413000
  7346   H2   -1.331    1.342    1.290   H1   347      ToA   0.000000
  7347   O2    0.030    1.482    2.855   Os   347      ToA  -0.534000
  7348   C1   -1.395   -0.386    1.340   Cg   348      ToB   0.301000
  7349   H1   -0.811   -0.767    2.179   H2   348      ToB   0.000000
  7350   C2   -1.086    1.124    1.105   Cg   348      ToB   0.383000
  7351   H2   -1.831    1.550    0.431   H1   348      ToB   0.000000
  7352   C3    0.331    1.314    0.498   Cg   348      ToB   0.259000
  7353   H3    1.066    1.020    1.250   H1   348      ToB   0.000000
  7354   C4    0.542    0.426   -0.753   Cg   348      ToB   0.260000
  7355   H4    1.569    0.553   -1.097   H1   348      ToB   0.000000
  7356   C5    0.280   -1.054   -0.424   Cg   348      ToB   0.049000
  7357   H5    0.980   -1.337    0.365   H1   348      ToB   0.000000
  7358   C6    0.676   -1.962   -1.647    C   348      ToB   0.838000
  7359  O6A   -0.096   -2.893   -1.980   O2   348      ToB  -0.794000
  7360  O6B    1.808   -1.755   -2.149   O2   348      ToB  -0.794000
  7361   O5   -1.101   -1.196    0.159   Os   348      ToB  -0.414000
  7362   O4   -0.355    0.857   -1.807   Os   348      ToB  -0.453000
  7363   O3    0.603    2.708    0.135   Os   348      ToB  -0.498000
  7364   O2   -1.178    1.799    2.397   Os   348      ToB  -0.525000
  7365   C1   -0.593   -0.846   -1.674   Cg   349      TqA   0.465000
  7366   H1   -0.265   -1.234   -2.638   H1   349      TqA   0.000000
  7367   O5    0.353   -1.291   -0.645   Os   349      TqA  -0.559000
  7368   C5    0.153   -0.775    0.735   Cg   349      TqA   0.234000
  7369   H5   -0.796   -1.164    1.112   H1   349      TqA   0.000000
  7370   C6    1.282   -1.348    1.596   Cg   349      TqA   0.060000
  7371  H61    1.292   -2.438    1.561   Hc   349      TqA   0.000000
  7372  H62    1.172   -1.062    2.643   Hc   349      TqA   0.000000
  7373  H63    2.261   -1.000    1.261   Hc   349      TqA   0.000000
  7374   C4    0.092    0.770    0.721   Cg   349      TqA   0.208000
  7375   H4    1.083    1.164    0.486   H1   349      TqA   0.000000
  7376   O4   -0.293    1.239    2.045   Os   349      TqA  -0.455000
  7377   C3   -0.925    1.298   -0.322   Cg   349      TqA   0.312000
  7378   H3   -1.939    1.047   -0.002   H1   349      TqA   0.000000
  7379   O3   -0.793    2.742   -0.357   Os   349      TqA  -0.467000
  7380   C2   -0.674    0.707   -1.733   Cg   349      TqA   0.281000
  7381   H2    0.287    1.076   -2.094   H1   349      TqA   0.000000
  7382   O2   -1.698    1.117   -2.696   Os   349      TqA  -0.467000
  7383   C1   -1.292   -0.325    1.468   Cg   350      TqB   0.391000
  7384   H1   -0.640   -0.741    2.237   H1   350      TqB   0.000000
  7385   C2   -1.031    1.194    1.270   Cg   350      TqB   0.323000
  7386   H2   -1.792    1.606    0.604   H1   350      TqB   0.000000
  7387   C3    0.368    1.410    0.650   Cg   350      TqB   0.300000
  7388   H3    1.126    1.144    1.389   H1   350      TqB   0.000000
  7389   C4    0.590    0.562   -0.627   Cg   350      TqB   0.250000
  7390   H4   -0.049    0.940   -1.428   H1   350      TqB   0.000000
  7391   C5    0.266   -0.931   -0.378   Cg   350      TqB   0.271000
  7392   H5    0.987   -1.342    0.333   H1   350      TqB   0.000000
  7393   C6    0.284   -1.793   -1.642   Cg   350      TqB   0.048000
  7394  H61    0.024   -2.829   -1.418   Hc   350      TqB   0.000000
  7395  H62    1.272   -1.803   -2.105   Hc   350      TqB   0.000000
  7396  H63   -0.425   -1.431   -2.387   Hc   350      TqB   0.000000
  7397   O5   -1.092   -1.047    0.214   Os   350      TqB  -0.535000
  7398   O4    1.976    0.679   -1.041   Os   350      TqB  -0.486000
  7399   O3    0.528    2.815    0.312   Os   350      TqB  -0.463000
  7400   O2   -1.101    1.892    2.550   Os   350      TqB  -0.487000
  7401   C1   -0.892   -1.503    0.291   Cg   351      TrA   0.488000
  7402   H1   -1.834   -1.910    0.658   H2   351      TrA   0.000000
  7403   O5   -1.141   -0.852   -1.018   Os   351      TrA  -0.561000
  7404   C5   -0.049   -0.040   -1.606   Cg   351      TrA   0.377000
  7405  H5A    0.784   -0.694   -1.868   H1   351      TrA   0.000000
  7406  H5E   -0.409    0.436   -2.518   H1   351      TrA   0.000000
  7407   C4    0.395    1.023   -0.588   Cg   351      TrA   0.122000
  7408   H4   -0.431    1.720   -0.439   H1   351      TrA   0.000000
  7409   O4    1.498    1.762   -1.139   Os   351      TrA  -0.438000
  7410   C3    0.786    0.432    0.782   Cg   351      TrA   0.345000
  7411   H3    0.993    1.235    1.491   H1   351      TrA   0.000000
  7412   O3    1.969   -0.385    0.642   Os   351      TrA  -0.488000
  7413   C2   -0.385   -0.434    1.288   Cg   351      TrA   0.253000
  7414   H2   -1.222    0.243    1.469   H1   351      TrA   0.000000
  7415   O2   -0.063   -1.033    2.556   Os   351      TrA  -0.486000
  7416   C1   -1.392   -0.620    0.918   Cg   352      TrB   0.481000
  7417   H1   -0.885   -1.019    1.797   H2   352      TrB   0.000000
  7418   C2   -1.021    0.877    0.666   Cg   352      TrB   0.385000
  7419   H2   -1.605    1.234   -0.184   H1   352      TrB   0.000000
  7420   C3    0.480    0.977    0.293   Cg   352      TrB   0.203000
  7421   H3    0.741    2.017    0.090   H1   352      TrB   0.000000
  7422   C4    0.733    0.120   -0.972   Cg   352      TrB   0.236000
  7423   H4    0.121    0.507   -1.789   H1   352      TrB   0.000000
  7424   C5    0.343   -1.358   -0.725   Cg   352      TrB   0.335000
  7425  H5A    0.995   -1.809    0.025   H1   352      TrB   0.000000
  7426  H5E    0.445   -1.930   -1.647   H1   352      TrB   0.000000
  7427   O5   -1.068   -1.440   -0.259   Os   352      TrB  -0.576000
  7428   O4    2.124    0.219   -1.378   Os   352      TrB  -0.478000
  7429   O3    1.328    0.479    1.372   Os   352      TrB  -0.462000
  7430   O2   -1.339    1.747    1.794   Os   352      TrB  -0.512000
  7431   C1   -0.446   -1.641    1.081   Cg   353      TtA   0.456000
  7432   H1   -1.275   -2.152    1.572   H2   353      TtA   0.000000
  7433   O5   -0.972   -0.950   -0.124   Os   353      TtA  -0.480000
  7434   C5   -0.048   -0.048   -0.864   Cg   353      TtA   0.157000
  7435   H5    0.807   -0.637   -1.200   H1   353      TtA   0.000000
  7436   C6   -0.769    0.483   -2.111   Cg   353      TtA   0.304000
  7437  H61   -1.704    0.976   -1.840   H1   353      TtA   0.000000
  7438  H62   -0.138    1.202   -2.634   H1   353      TtA   0.000000
  7439   O6   -1.048   -0.616   -2.988   Oh   353      TtA  -0.669000
  7440  H6O   -0.226   -1.043   -3.239   Ho   353      TtA   0.401000
  7441   C4    0.485    1.041    0.092   Cg   353      TtA   0.434000
  7442   H4    1.243    1.636   -0.420   H1   353      TtA   0.000000
  7443   O4   -0.602    1.910    0.471   Os   353      TtA  -0.508000
  7444   C3    1.103    0.380    1.342   Cg   353      TtA   0.124000
  7445   H3    1.979   -0.175    1.004   H1   353      TtA   0.000000
  7446   O3    1.581    1.378    2.261   Os   353      TtA  -0.439000
  7447   C2    0.185   -0.633    2.062   Cg   353      TtA   0.245000
  7448   H2    0.752   -1.162    2.830   H1   353      TtA   0.000000
  7449   O2   -0.908    0.050    2.705   Os   353      TtA  -0.413000
  7450   C1   -1.219   -0.997    1.193   Cg   354      TtB   0.306000
  7451   H1   -0.669   -1.939    1.185   H2   354      TtB   0.000000
  7452   C2   -0.493    0.008    2.113   Cg   354      TtB   0.340000
  7453   H2   -0.376   -0.416    3.111   H1   354      TtB   0.000000
  7454   C3    0.893    0.330    1.511   Cg   354      TtB   0.174000
  7455   H3    1.480   -0.588    1.564   H1   354      TtB   0.000000
  7456   C4    0.874    0.764    0.027   Cg   354      TtB   0.314000
  7457   H4    1.897    0.822   -0.350   H1   354      TtB   0.000000
  7458   C5    0.071   -0.254   -0.817   Cg   354      TtB   0.031000
  7459   H5    0.616   -1.200   -0.795   H1   354      TtB   0.000000
  7460   C6   -0.130    0.134   -2.289   Cg   354      TtB   0.349000
  7461  H61    0.829    0.360   -2.754   H1   354      TtB   0.000000
  7462  H62   -0.773    1.010   -2.376   H1   354      TtB   0.000000
  7463   O6   -0.735   -0.968   -2.979   Oh   354      TtB  -0.666000
  7464  H6O   -1.578   -1.177   -2.571   Ho   354      TtB   0.406000
  7465   O5   -1.260   -0.473   -0.192   Os   354      TtB  -0.354000
  7466   O4    0.264    2.065   -0.104   Os   354      TtB  -0.407000
  7467   O3    1.583    1.303    2.317   Os   354      TtB  -0.447000
  7468   O2   -1.277    1.217    2.207   Os   354      TtB  -0.434000
  7469   C1   -1.672   -0.857    0.096   Cg   355      TuA   0.363000
  7470   H1   -1.531   -1.353   -0.865   H2   355      TuA   0.000000
  7471   O5   -0.634   -1.301    1.028   Os   355      TuA  -0.515000
  7472   C5    0.772   -0.899    0.680   Cg   355      TuA   0.232000
  7473   H5    1.408   -1.250    1.494   H1   355      TuA   0.000000
  7474   C6    1.422   -1.483   -0.650    C   355      TuA   0.697000
  7475  O6B    2.577   -1.089   -0.942   O2   355      TuA  -0.757000
  7476  O6A    0.735   -2.253   -1.358   O2   355      TuA  -0.757000
  7477   C4    0.811    0.641    0.692   Cg   355      TuA   0.223000
  7478   H4    0.548    0.984    1.695   H1   355      TuA   0.000000
  7479   O4    2.155    1.130    0.393   Os   355      TuA  -0.508000
  7480   C3   -0.224    1.214   -0.311   Cg   355      TuA   0.417000
  7481   H3    0.087    0.946   -1.323   H1   355      TuA   0.000000
  7482   O3   -0.182    2.663   -0.191   Os   355      TuA  -0.548000
  7483   C2   -1.670    0.692   -0.076   Cg   355      TuA   0.259000
  7484   H2   -2.063    1.146    0.836   H1   355      TuA   0.000000
  7485   O2   -2.539    1.070   -1.198   Os   355      TuA  -0.494000
  7486   C1    0.574   -0.988    1.467   Cg   356      TuB   0.278000
  7487   H1    1.315   -1.457    2.115   H2   356      TuB   0.000000
  7488   C2    0.836    0.546    1.424   Cg   356      TuB   0.289000
  7489   H2    1.874    0.686    1.120   H1   356      TuB   0.000000
  7490   C3   -0.060    1.250    0.380   Cg   356      TuB   0.286000
  7491   H3   -1.110    1.165    0.665   H1   356      TuB   0.000000
  7492   C4    0.164    0.611   -1.016   Cg   356      TuB   0.308000
  7493   H4    1.210    0.765   -1.292   H1   356      TuB   0.000000
  7494   C5   -0.095   -0.913   -1.003   Cg   356      TuB   0.194000
  7495   H5    0.291   -1.315   -1.941   H1   356      TuB   0.000000
  7496   C6   -1.642   -1.241   -1.020    C   356      TuB   0.750000
  7497  O6A   -2.072   -2.046   -0.163   O2   356      TuB  -0.783000
  7498  O6B   -2.353   -0.652   -1.869   O2   356      TuB  -0.783000
  7499   O5    0.727   -1.536    0.103   Os   356      TuB  -0.430000
  7500   O4   -0.649    1.287   -2.016   Os   356      TuB  -0.517000
  7501   O3    0.297    2.665    0.317   Os   356      TuB  -0.528000
  7502   O2    0.693    1.175    2.728   Os   356      TuB  -0.452000
  7503   C1   -0.449   -1.049   -1.344   Cg   357      TxA   0.482000
  7504   H1   -0.234   -1.366   -2.365   H2   357      TxA   0.000000
  7505   O5    0.558   -1.621   -0.450   Os   357      TxA  -0.588000
  7506   C5    0.537   -1.179    0.972   Cg   357      TxA   0.335000
  7507  H5A   -0.366   -1.565    1.447   H1   357      TxA   0.000000
  7508  H5E    1.396   -1.608    1.488   H1   357      TxA   0.000000
  7509   C4    0.574    0.356    1.073   Cg   357      TxA   0.247000
  7510   H4    1.553    0.709    0.744   H1   357      TxA   0.000000
  7511   O4    0.386    0.733    2.464   Os   357      TxA  -0.494000
  7512   C3   -0.530    0.988    0.193   Cg   357      TxA   0.359000
  7513   H3   -1.512    0.751    0.608   H1   357      TxA   0.000000
  7514   O3   -0.358    2.429    0.198   Os   357      TxA  -0.485000
  7515   C2   -0.460    0.501   -1.269   Cg   357      TxA   0.197000
  7516   H2    0.471    0.861   -1.709   H1   357      TxA   0.000000
  7517   O2   -1.567    1.057   -2.049   Os   357      TxA  -0.441000
  7518   C1   -1.243   -0.763    1.048   Cg   358      TxB   0.248000
  7519   H1   -0.600   -1.154    1.838   H2   358      TxB   0.000000
  7520   C2   -0.989    0.758    0.833   Cg   358      TxB   0.425000
  7521   H2   -1.757    1.163    0.171   H1   358      TxB   0.000000
  7522   C3    0.409    1.008    0.219   Cg   358      TxB   0.228000
  7523   H3    1.172    0.763    0.961   H1   358      TxB   0.000000
  7524   C4    0.635    0.142   -1.041   Cg   358      TxB   0.286000
  7525   H4   -0.027    0.478   -1.841   H1   358      TxB   0.000000
  7526   C5    0.365   -1.349   -0.759   Cg   358      TxB   0.303000
  7527  H5A    1.101   -1.745   -0.055   H1   358      TxB   0.000000
  7528  H5E    0.434   -1.925   -1.682   H1   358      TxB   0.000000
  7529   O5   -0.991   -1.514   -0.185   Os   358      TxB  -0.447000
  7530   O4    2.007    0.285   -1.478   Os   358      TxB  -0.487000
  7531   O3    0.550    2.414   -0.141   Os   358      TxB  -0.449000
  7532   O2   -1.065    1.438    2.114   Os   358      TxB  -0.495000
  7533   C1   -0.638   -0.667    1.726   Cg   359      TzA   0.398000
  7534   H1   -1.495   -0.865    2.369   H2   359      TzA   0.000000
  7535   O5   -0.895   -1.244    0.412   Os   359      TzA  -0.544000
  7536   C5    0.108   -0.982   -0.693   Cg   359      TzA   0.187000
  7537   H5    1.042   -1.438   -0.359   H1   359      TzA   0.000000
  7538   C6   -0.163   -1.655   -2.116    C   359      TzA   0.798000
  7539  O6B   -0.988   -2.593   -2.184   O2   359      TzA  -0.787000
  7540  O6A    0.515   -1.242   -3.094   O2   359      TzA  -0.787000
  7541   C4    0.376    0.539   -0.821   Cg   359      TzA   0.193000
  7542   H4   -0.488    1.004   -1.298   H1   359      TzA   0.000000
  7543   O4    1.532    0.705   -1.684   Os   359      TzA  -0.454000
  7544   C3    0.641    1.231    0.547   Cg   359      TzA   0.300000
  7545   H3    1.628    0.937    0.908   H1   359      TzA   0.000000
  7546   O3    0.614    2.681    0.395   Os   359      TzA  -0.498000
  7547   C2   -0.409    0.864    1.622   Cg   359      TzA   0.326000
  7548   H2   -1.361    1.319    1.343   H1   359      TzA   0.000000
  7549   O2   -0.018    1.406    2.927   Os   359      TzA  -0.520000
  7550   C1   -1.432   -0.439    1.288   Cg   360      TzB   0.251000
  7551   H1   -0.837   -0.849    2.104   H2   360      TzB   0.000000
  7552   C2   -1.153    1.082    1.111   Cg   360      TzB   0.411000
  7553   H2   -1.888    1.503    0.422   H1   360      TzB   0.000000
  7554   C3    0.272    1.333    0.553   Cg   360      TzB   0.266000
  7555   H3    0.999    1.114    1.337   H1   360      TzB   0.000000
  7556   C4    0.586    0.445   -0.681   Cg   360      TzB   0.267000
  7557   H4   -0.008    0.788   -1.531   H1   360      TzB   0.000000
  7558   C5    0.282   -1.049   -0.450   Cg   360      TzB   0.075000
  7559   H5    0.941   -1.407    0.344   H1   360      TzB   0.000000
  7560   C6    0.654   -1.910   -1.726    C   360      TzB   0.893000
  7561  O6A   -0.115   -2.841   -2.057   O2   360      TzB  -0.818000
  7562  O6B    1.723   -1.625   -2.324   O2   360      TzB  -0.818000
  7563   O5   -1.125   -1.170    0.063   Os   360      TzB  -0.413000
  7564   O4    1.988    0.594   -1.012   Os   360      TzB  -0.498000
  7565   O3    0.435    2.724    0.143   Os   360      TzB  -0.492000
  7566   O2   -1.322    1.707    2.417   Os   360      TzB  -0.512000
  7567   C1   -0.362   -1.682    0.676   Cg   361      UeA   0.480000
  7568   H1   -1.144   -2.247    1.185   H2   361      UeA   0.000000
  7569   O5   -0.956   -1.051   -0.527   Os   361      UeA  -0.587000
  7570   C5   -0.150   -0.053   -1.274   Cg   361      UeA   0.374000
  7571   H5    0.749   -0.540   -1.657   H1   361      UeA   0.000000
  7572   C6   -0.996    0.440   -2.457   Cg   361      UeA   0.259000
  7573  H61   -1.951    0.837   -2.109   H1   361      UeA   0.000000
  7574  H62   -0.472    1.227   -2.999   H1   361      UeA   0.000000
  7575   O6   -1.231   -0.657   -3.349   Os   361      UeA  -0.451000
  7576   C4    0.257    1.059   -0.288   Cg   361      UeA   0.261000
  7577   H4   -0.646    1.577    0.041   H1   361      UeA   0.000000
  7578   C3    0.988    0.523    0.962   Cg   361      UeA   0.328000
  7579   H3    1.156    1.337    1.670   H1   361      UeA   0.000000
  7580   O3    2.271   -0.019    0.589   Oh   361      UeA  -0.714000
  7581  H3O    2.720   -0.346    1.372   Ho   361      UeA   0.420000
  7582   C2    0.201   -0.615    1.641   Cg   361      UeA   0.179000
  7583   H2    0.820   -1.092    2.404   H1   361      UeA   0.000000
  7584   O2   -0.924   -0.019    2.308   Oh   361      UeA  -0.690000
  7585  H2O   -1.423   -0.701    2.765   Ho   361      UeA   0.447000
  7586   O4    1.095    2.021   -0.953   Os   361      UeA  -0.500000
  7587   C1   -1.426   -0.388    1.233   Cg   362      UeB   0.488000
  7588   H1   -0.871   -0.789    2.082   H2   362      UeB   0.000000
  7589   C2   -1.114    1.128    1.038   Cg   362      UeB   0.184000
  7590   H2   -1.301    1.660    1.972   H1   362      UeB   0.000000
  7591   O2   -1.933    1.739   -0.009   Oh   362      UeB  -0.697000
  7592  H2O   -2.862    1.578    0.200   Ho   362      UeB   0.432000
  7593   C3    0.363    1.285    0.634   Cg   362      UeB   0.315000
  7594   H3    0.575    2.336    0.430   H1   362      UeB   0.000000
  7595   O3    1.189    0.869    1.756   Oh   362      UeB  -0.681000
  7596  H3O    2.109    0.848    1.466   Ho   362      UeB   0.403000
  7597   C4    0.694    0.443   -0.630   Cg   362      UeB   0.320000
  7598   H4    0.112    0.827   -1.469   H1   362      UeB   0.000000
  7599   C5    0.333   -1.048   -0.419   Cg   362      UeB   0.257000
  7600   H5    0.976   -1.465    0.359   H1   362      UeB   0.000000
  7601   C6    0.524   -1.876   -1.705   Cg   362      UeB   0.278000
  7602  H61    1.562   -1.837   -2.036   H1   362      UeB   0.000000
  7603  H62   -0.105   -1.480   -2.503   H1   362      UeB   0.000000
  7604   O6    0.165   -3.248   -1.464   Os   362      UeB  -0.463000
  7605   O5   -1.093   -1.166    0.033   Os   362      UeB  -0.532000
  7606   O4    2.104    0.586   -0.971   Os   362      UeB  -0.498000
  7607   C1   -0.683   -0.706    1.590   Cg   363      UgA   0.509000
  7608   H1   -1.560   -0.867    2.218   H2   363      UgA   0.000000
  7609   O5   -0.913   -1.329    0.287   Os   363      UgA  -0.574000
  7610   C5    0.107   -1.102   -0.789   Cg   363      UgA   0.283000
  7611   H5    1.050   -1.550   -0.468   H1   363      UgA   0.000000
  7612   C6   -0.348   -1.799   -2.092   Cg   363      UgA   0.276000
  7613  H61   -1.385   -1.541   -2.311   H1   363      UgA   0.000000
  7614  H62    0.264   -1.476   -2.935   H1   363      UgA   0.000000
  7615   O6   -0.228   -3.233   -1.975   Os   363      UgA  -0.458000
  7616   C4    0.330    0.414   -0.976   Cg   363      UgA   0.254000
  7617   H4   -0.568    0.862   -1.405   H1   363      UgA   0.000000
  7618   C3    0.657    1.103    0.370   Cg   363      UgA   0.286000
  7619   H3    1.628    0.758    0.732   H1   363      UgA   0.000000
  7620   O3    0.725    2.536    0.152   Oh   363      UgA  -0.699000
  7621  H3O    0.693    2.962    1.020   Ho   363      UgA   0.427000
  7622   C2   -0.415    0.820    1.443   Cg   363      UgA   0.246000
  7623   H2   -1.348    1.290    1.129   H1   363      UgA   0.000000
  7624   O2   -0.020    1.421    2.719   Oh   363      UgA  -0.713000
  7625  H2O    0.577    0.818    3.183   Ho   363      UgA   0.437000
  7626   O4    1.438    0.618   -1.891   Os   363      UgA  -0.468000
  7627   C1   -1.336   -0.449    1.203   Cg   364      UgB   0.384000
  7628   H1   -0.762   -0.849    2.040   H2   364      UgB   0.000000
  7629   C2   -0.985    1.043    0.948   Cg   364      UgB   0.310000
  7630   H2   -1.683    1.457    0.217   H1   364      UgB   0.000000
  7631   O2   -1.099    1.803    2.187   Oh   364      UgB  -0.718000
  7632  H2O   -1.983    1.657    2.547   Ho   364      UgB   0.437000
  7633   C3    0.458    1.173    0.410   Cg   364      UgB   0.284000
  7634   H3    1.159    0.911    1.205   H1   364      UgB   0.000000
  7635   O3    0.700    2.551    0.015   Oh   364      UgB  -0.709000
  7636  H3O    0.460    3.113    0.765   Ho   364      UgB   0.432000
  7637   C4    0.710    0.253   -0.810   Cg   364      UgB   0.276000
  7638   H4    0.116    0.603   -1.656   H1   364      UgB   0.000000
  7639   C5    0.337   -1.211   -0.494   Cg   364      UgB   0.225000
  7640   H5    0.994   -1.586    0.294   H1   364      UgB   0.000000
  7641   C6    0.469   -2.132   -1.723   Cg   364      UgB   0.282000
  7642  H61    1.499   -2.150   -2.079   H1   364      UgB   0.000000
  7643  H62   -0.168   -1.773   -2.533   H1   364      UgB   0.000000
  7644   O6    0.073   -3.471   -1.374   Os   364      UgB  -0.458000
  7645   O5   -1.071   -1.255    0.007   Os   364      UgB  -0.471000
  7646   O4    2.111    0.313   -1.167   Os   364      UgB  -0.468000
  7647   C1   -0.628   -1.588    0.686   Cg   365      UkA   0.473000
  7648   H1   -1.418   -2.121    1.215   H2   365      UkA   0.000000
  7649   O5   -1.229   -0.888   -0.472   Os   365      UkA  -0.540000
  7650   C5   -0.352    0.035   -1.244   Cg   365      UkA   0.301000
  7651   H5    0.479   -0.547   -1.649   H1   365      UkA   0.000000
  7652   C6   -1.147    0.596   -2.432   Cg   365      UkA   0.287000
  7653  H61   -2.061    1.085   -2.091   H1   365      UkA   0.000000
  7654  H62   -0.547    1.324   -2.977   H1   365      UkA   0.000000
  7655   O6   -1.486   -0.482   -3.315   Os   365      UkA  -0.463000
  7656   C4    0.250    1.105   -0.300   Cg   365      UkA   0.196000
  7657   H4    0.979    1.703   -0.848   H1   365      UkA   0.000000
  7658   C3    0.912    0.500    0.954   Cg   365      UkA   0.354000
  7659   H3    1.168    1.289    1.662   H1   365      UkA   0.000000
  7660   O3    2.133   -0.133    0.527   Oh   365      UkA  -0.744000
  7661  H3O    2.580   -0.511    1.288   Ho   365      UkA   0.436000
  7662   C2   -0.016   -0.532    1.632   Cg   365      UkA   0.281000
  7663   H2   -0.853    0.028    2.050   H1   365      UkA   0.000000
  7664   O2    0.646   -1.163    2.743   Oh   365      UkA  -0.716000
  7665  H2O    1.384   -1.686    2.420   Ho   365      UkA   0.427000
  7666   O4   -0.796    1.986    0.151   Os   365      UkA  -0.486000
  7667   C1   -1.335   -0.470    1.114   Cg   366      UkB   0.449000
  7668   H1   -0.753   -0.901    1.929   H2   366      UkB   0.000000
  7669   C2   -1.030    1.048    0.944   Cg   366      UkB   0.308000
  7670   H2   -1.721    1.467    0.211   H1   366      UkB   0.000000
  7671   O2   -1.208    1.780    2.197   Oh   366      UkB  -0.710000
  7672  H2O   -2.107    1.623    2.510   Ho   366      UkB   0.426000
  7673   C3    0.414    1.254    0.431   Cg   366      UkB   0.253000
  7674   H3    0.576    2.314    0.229   H1   366      UkB   0.000000
  7675   O3    1.371    0.841    1.441   Oh   366      UkB  -0.710000
  7676  H3O    1.141    1.302    2.261   Ho   366      UkB   0.442000
  7677   C4    0.694    0.440   -0.852   Cg   366      UkB   0.217000
  7678   H4    1.753    0.516   -1.106   H1   366      UkB   0.000000
  7679   C5    0.332   -1.057   -0.655   Cg   366      UkB   0.303000
  7680   H5    1.018   -1.472    0.086   H1   366      UkB   0.000000
  7681   C6    0.480   -1.888   -1.946   Cg   366      UkB   0.259000
  7682  H61    1.479   -1.759   -2.362   H1   366      UkB   0.000000
  7683  H62   -0.246   -1.567   -2.693   H1   366      UkB   0.000000
  7684   O6    0.272   -3.286   -1.663   Os   366      UkB  -0.448000
  7685   O5   -1.062   -1.204   -0.125   Os   366      UkB  -0.514000
  7686   O4   -0.066    1.019   -1.950   Os   366      UkB  -0.469000
  7687   C1   -0.651   -1.642    0.615   Cg   367      UlA   0.465000
  7688   H1   -1.466   -2.157    1.124   H2   367      UlA   0.000000
  7689   O5   -1.204   -0.933   -0.564   Os   367      UlA  -0.527000
  7690   C5   -0.276   -0.043   -1.316   Cg   367      UlA   0.216000
  7691   H5    0.561   -0.646   -1.677   H1   367      UlA   0.000000
  7692   C6   -1.010    0.517   -2.542   Cg   367      UlA   0.308000
  7693  H61   -1.927    1.029   -2.246   H1   367      UlA   0.000000
  7694  H62   -0.373    1.226   -3.071   H1   367      UlA   0.000000
  7695   O6   -1.334   -0.566   -3.424   Os   367      UlA  -0.460000
  7696   C4    0.299    1.022   -0.357   Cg   367      UlA   0.204000
  7697   H4    1.039    1.628   -0.882   H1   367      UlA   0.000000
  7698   C3    0.950    0.348    0.869   Cg   367      UlA   0.253000
  7699   H3    1.822   -0.215    0.533   H1   367      UlA   0.000000
  7700   O3    1.400    1.365    1.784   Oh   367      UlA  -0.701000
  7701  H3O    1.815    0.951    2.544   Ho   367      UlA   0.433000
  7702   C2   -0.027   -0.607    1.581   Cg   367      UlA   0.339000
  7703   H2   -0.838   -0.024    2.020   H1   367      UlA   0.000000
  7704   O2    0.648   -1.297    2.650   Oh   367      UlA  -0.724000
  7705  H2O    1.354   -1.836    2.286   Ho   367      UlA   0.431000
  7706   O4   -0.783    1.878    0.072   Os   367      UlA  -0.431000
  7707   C1   -1.324   -0.475    1.205   Cg   368      UlB   0.374000
  7708   H1   -0.752   -0.873    2.045   H2   368      UlB   0.000000
  7709   C2   -0.973    1.024    0.970   Cg   368      UlB   0.357000
  7710   H2   -1.674    1.457    0.254   H1   368      UlB   0.000000
  7711   O2   -1.071    1.759    2.227   Oh   368      UlB  -0.726000
  7712  H2O   -1.955    1.612    2.585   Ho   368      UlB   0.432000
  7713   C3    0.471    1.155    0.431   Cg   368      UlB   0.259000
  7714   H3    1.166    0.832    1.209   H1   368      UlB   0.000000
  7715   O3    0.780    2.540    0.108   Oh   368      UlB  -0.694000
  7716  H3O    0.576    3.072    0.889   Ho   368      UlB   0.433000
  7717   C4    0.710    0.278   -0.820   Cg   368      UlB   0.203000
  7718   H4    1.760    0.343   -1.110   H1   368      UlB   0.000000
  7719   C5    0.351   -1.195   -0.526   Cg   368      UlB   0.140000
  7720   H5    1.037   -1.556    0.244   H1   368      UlB   0.000000
  7721   C6    0.494   -2.111   -1.754   Cg   368      UlB   0.319000
  7722  H61    1.491   -2.015   -2.184   H1   368      UlB   0.000000
  7723  H62   -0.239   -1.851   -2.519   H1   368      UlB   0.000000
  7724   O6    0.291   -3.474   -1.349   Os   368      UlB  -0.468000
  7725   O5   -1.040   -1.287    0.014   Os   368      UlB  -0.402000
  7726   O4   -0.099    0.766   -1.919   Os   368      UlB  -0.421000
  7727   C1   -0.733   -0.819    1.662   Cg   369      UmA   0.433000
  7728   H1   -1.666   -0.999    2.195   H2   369      UmA   0.000000
  7729   O5   -0.815   -1.455    0.339   Os   369      UmA  -0.507000
  7730   C5    0.260   -1.160   -0.661   Cg   369      UmA   0.276000
  7731   H5    1.189   -1.606   -0.300   H1   369      UmA   0.000000
  7732   C6   -0.104   -1.812   -2.013   Cg   369      UmA   0.266000
  7733  H61   -1.124   -1.544   -2.295   H1   369      UmA   0.000000
  7734  H62    0.565   -1.463   -2.799   H1   369      UmA   0.000000
  7735   O6    0.006   -3.250   -1.939   Os   369      UmA  -0.460000
  7736   C4    0.473    0.366   -0.789   Cg   369      UmA   0.326000
  7737   H4   -0.394    0.823   -1.268   H1   369      UmA   0.000000
  7738   C3    0.702    1.002    0.605   Cg   369      UmA   0.252000
  7739   H3    1.613    0.582    1.035   H1   369      UmA   0.000000
  7740   O3    0.894    2.446    0.490   Oh   369      UmA  -0.696000
  7741  H3O    1.313    2.783    1.291   Ho   369      UmA   0.431000
  7742   C2   -0.474    0.711    1.564   Cg   369      UmA   0.245000
  7743   H2   -0.235    1.101    2.554   H1   369      UmA   0.000000
  7744   O2   -1.675    1.391    1.091   Oh   369      UmA  -0.717000
  7745  H2O   -1.442    2.295    0.847   Ho   369      UmA   0.446000
  7746   O4    1.645    0.608   -1.610   Os   369      UmA  -0.489000
  7747   C1   -1.323   -0.469    1.382   Cg   370      UmB   0.314000
  7748   H1   -0.689   -0.770    2.218   H2   370      UmB   0.000000
  7749   C2   -1.098    1.033    1.054   Cg   370      UmB   0.241000
  7750   H2   -1.317    1.641    1.934   H1   370      UmB   0.000000
  7751   O2   -1.979    1.437   -0.036   Oh   370      UmB  -0.664000
  7752  H2O   -2.882    1.224    0.226   Ho   370      UmB   0.431000
  7753   C3    0.386    1.199    0.651   Cg   370      UmB   0.263000
  7754   H3    1.001    0.850    1.483   H1   370      UmB   0.000000
  7755   O3    0.711    2.605    0.447   Oh   370      UmB  -0.692000
  7756  H3O    1.652    2.743    0.594   Ho   370      UmB   0.430000
  7757   C4    0.712    0.339   -0.601   Cg   370      UmB   0.349000
  7758   H4    0.137    0.694   -1.457   H1   370      UmB   0.000000
  7759   C5    0.388   -1.152   -0.331   Cg   370      UmB   0.206000
  7760   H5    1.087   -1.533    0.416   H1   370      UmB   0.000000
  7761   C6    0.517   -2.006   -1.605   Cg   370      UmB   0.273000
  7762  H61    1.530   -1.949   -2.003   H1   370      UmB   0.000000
  7763  H62   -0.174   -1.650   -2.371   H1   370      UmB   0.000000
  7764   O6    0.215   -3.381   -1.305   Os   370      UmB  -0.455000
  7765   O5   -0.998   -1.306    0.218   Os   370      UmB  -0.393000
  7766   O4    2.125    0.450   -0.914   Os   370      UmB  -0.497000
  7767   C1   -0.557   -1.699    0.684   Cg   371      UnA   0.478000
  7768   H1   -1.347   -2.283    1.157   H2   371      UnA   0.000000
  7769   O5   -1.117   -1.037   -0.515   Os   371      UnA  -0.611000
  7770   C5   -0.290   -0.017   -1.217   Cg   371      UnA   0.404000
  7771   H5    0.598   -0.507   -1.622   H1   371      UnA   0.000000
  7772   C6   -1.125    0.543   -2.376   Cg   371      UnA   0.280000
  7773  H61   -2.069    0.950   -2.010   H1   371      UnA   0.000000
  7774  H62   -0.583    1.338   -2.889   H1   371      UnA   0.000000
  7775   O6   -1.392   -0.511   -3.311   Os   371      UnA  -0.461000
  7776   C4    0.147    1.053   -0.191   Cg   371      UnA   0.167000
  7777   H4   -0.739    1.598    0.137   H1   371      UnA   0.000000
  7778   C3    0.837    0.467    1.059   Cg   371      UnA   0.330000
  7779   H3    1.023    1.257    1.788   H1   371      UnA   0.000000
  7780   O3    2.099   -0.130    0.686   Oh   371      UnA  -0.714000
  7781  H3O    2.689    0.550    0.355   Ho   371      UnA   0.441000
  7782   C2   -0.083   -0.608    1.670   Cg   371      UnA   0.228000
  7783   H2   -0.980   -0.094    2.020   H1   371      UnA   0.000000
  7784   O2    0.529   -1.201    2.830   Oh   371      UnA  -0.668000
  7785  H2O    1.327   -1.664    2.567   Ho   371      UnA   0.415000
  7786   O4    1.032    1.995   -0.822   Os   371      UnA  -0.483000
  7787   C1   -1.336   -0.442    1.138   Cg   372      UnB   0.422000
  7788   H1   -0.754   -0.848    1.969   H2   372      UnB   0.000000
  7789   C2   -1.033    1.071    0.924   Cg   372      UnB   0.301000
  7790   H2   -1.734    1.471    0.187   H1   372      UnB   0.000000
  7791   O2   -1.194    1.833    2.156   Oh   372      UnB  -0.703000
  7792  H2O   -2.100    1.717    2.470   Ho   372      UnB   0.424000
  7793   C3    0.401    1.272    0.386   Cg   372      UnB   0.234000
  7794   H3    0.559    2.330    0.163   H1   372      UnB   0.000000
  7795   O3    1.365    0.864    1.400   Oh   372      UnB  -0.615000
  7796  H3O    1.103    1.275    2.235   Ho   372      UnB   0.389000
  7797   C4    0.605    0.434   -0.896   Cg   372      UnB   0.286000
  7798   H4   -0.091    0.785   -1.659   H1   372      UnB   0.000000
  7799   C5    0.336   -1.067   -0.635   Cg   372      UnB   0.198000
  7800   H5    1.047   -1.436    0.106   H1   372      UnB   0.000000
  7801   C6    0.476   -1.927   -1.906   Cg   372      UnB   0.313000
  7802  H61    1.489   -1.866   -2.303   H1   372      UnB   0.000000
  7803  H62   -0.219   -1.585   -2.673   H1   372      UnB   0.000000
  7804   O6    0.182   -3.298   -1.584   Os   372      UnB  -0.465000
  7805   O5   -1.049   -1.214   -0.080   Os   372      UnB  -0.507000
  7806   O4    1.948    0.632   -1.398   Os   372      UnB  -0.471000
  7807   C1   -0.484   -1.711    0.611   Cg   373      UtA   0.456000
  7808   H1   -1.313   -2.222    1.102   H2   373      UtA   0.000000
  7809   O5   -1.010   -1.020   -0.594   Os   373      UtA  -0.480000
  7810   C5   -0.087   -0.118   -1.334   Cg   373      UtA   0.157000
  7811   H5    0.769   -0.707   -1.669   H1   373      UtA   0.000000
  7812   C6   -0.807    0.413   -2.581   Cg   373      UtA   0.304000
  7813  H61   -1.742    0.906   -2.310   H1   373      UtA   0.000000
  7814  H62   -0.176    1.132   -3.104   H1   373      UtA   0.000000
  7815   O6   -1.087   -0.686   -3.458   Os   373      UtA  -0.462000
  7816   C4    0.447    0.971   -0.378   Cg   373      UtA   0.434000
  7817   H4    1.205    1.566   -0.890   H1   373      UtA   0.000000
  7818   C3    1.064    0.310    0.872   Cg   373      UtA   0.124000
  7819   H3    1.940   -0.245    0.534   H1   373      UtA   0.000000
  7820   O3    1.543    1.308    1.792   Oh   373      UtA  -0.687000
  7821  H3O    1.970    0.879    2.537   Ho   373      UtA   0.442000
  7822   C2    0.147   -0.703    1.593   Cg   373      UtA   0.245000
  7823   H2    0.714   -1.232    2.361   H1   373      UtA   0.000000
  7824   O2   -0.946   -0.021    2.235   Oh   373      UtA  -0.655000
  7825  H2O   -1.507   -0.661    2.679   Ho   373      UtA   0.436000
  7826   O4   -0.641    1.840    0.002   Os   373      UtA  -0.508000
  7827   C1   -1.245   -1.213    0.821   Cg   374      UtB   0.306000
  7828   H1   -0.695   -2.155    0.814   H2   374      UtB   0.000000
  7829   C2   -0.519   -0.207    1.741   Cg   374      UtB   0.340000
  7830   H2   -0.403   -0.632    2.740   H1   374      UtB   0.000000
  7831   O2   -1.303    1.002    1.836   Oh   374      UtB  -0.637000
  7832  H2O   -2.172    0.792    2.185   Ho   374      UtB   0.397000
  7833   C3    0.867    0.114    1.140   Cg   374      UtB   0.174000
  7834   H3    1.454   -0.804    1.192   H1   374      UtB   0.000000
  7835   O3    1.557    1.087    1.945   Oh   374      UtB  -0.678000
  7836  H3O    1.072    1.915    1.929   Ho   374      UtB   0.425000
  7837   C4    0.848    0.548   -0.345   Cg   374      UtB   0.314000
  7838   H4    1.870    0.606   -0.722   H1   374      UtB   0.000000
  7839   C5    0.044   -0.470   -1.189   Cg   374      UtB   0.031000
  7840   H5    0.590   -1.415   -1.166   H1   374      UtB   0.000000
  7841   C6   -0.156   -0.082   -2.660   Cg   374      UtB   0.349000
  7842  H61    0.803    0.144   -3.125   H1   374      UtB   0.000000
  7843  H62   -0.800    0.795   -2.747   H1   374      UtB   0.000000
  7844   O6   -0.761   -1.184   -3.351   Os   374      UtB  -0.454000
  7845   O5   -1.287   -0.689   -0.563   Os   374      UtB  -0.354000
  7846   O4    0.238    1.849   -0.475   Os   374      UtB  -0.407000
  7847   C1    0.029   -1.374   -0.494   Cg   375      UvA   0.389000
  7848   H1    0.286   -1.710   -1.499   H2   375      UvA   0.000000
  7849   O5    1.058   -1.866    0.433   Os   375      UvA  -0.466000
  7850   C5    1.046   -1.335    1.833   Cg   375      UvA   0.112000
  7851   H5    0.121   -1.679    2.298   H1   375      UvA   0.000000
  7852   C6    2.197   -1.949    2.657   Cg   375      UvA   0.362000
  7853  H61    2.132   -1.604    3.689   H1   375      UvA   0.000000
  7854  H62    2.120   -3.036    2.659   H1   375      UvA   0.000000
  7855   O6    3.473   -1.571    2.121   Os   375      UvA  -0.481000
  7856   C4    1.000    0.212    1.837   Cg   375      UvA   0.326000
  7857   H4    0.854    0.562    2.860   H1   375      UvA   0.000000
  7858   C3   -0.154    0.737    0.951   Cg   375      UvA   0.176000
  7859   H3   -1.094    0.399    1.389   H1   375      UvA   0.000000
  7860   O3   -0.157    2.199    0.989   Oh   375      UvA  -0.678000
  7861  H3O   -0.886    2.548    0.464   Ho   375      UvA   0.425000
  7862   C2   -0.060    0.188   -0.496   Cg   375      UvA   0.399000
  7863   H2    0.863    0.568   -0.939   H1   375      UvA   0.000000
  7864   N2   -1.194    0.674   -1.318   Ng   375      UvA  -0.595000
  7865  H2N   -2.101    0.709   -0.881    H   375      UvA   0.238000
  7866  C2N   -1.119    0.799   -2.646    C   375      UvA   0.625000
  7867  O2N   -0.075    0.597   -3.258    O   375      UvA  -0.605000
  7868  CME   -2.414    1.218   -3.368   Cg   375      UvA   0.032000
  7869  H1M   -2.649    2.256   -3.127   Hc   375      UvA   0.000000
  7870  H2M   -2.291    1.125   -4.448   Hc   375      UvA   0.000000
  7871  H3M   -3.241    0.580   -3.054   Hc   375      UvA   0.000000
  7872   O4    2.253    0.752    1.346   Os   375      UvA  -0.453000
  7873   C1   -0.906   -1.336    0.472   Cg   376      UvB   0.305000
  7874   H1   -0.286   -1.713    1.286   H2   376      UvB   0.000000
  7875   C2   -0.619    0.191    0.259   Cg   376      UvB   0.544000
  7876   H2   -1.302    0.558   -0.508   H1   376      UvB   0.000000
  7877   N2   -0.825    0.951    1.513   Ng   376      UvB  -0.686000
  7878  H2N   -0.436    0.579    2.361    H   376      UvB   0.254000
  7879  C2N   -1.533    2.084    1.564    C   376      UvB   0.586000
  7880  CME   -1.644    2.758    2.947   Cg   376      UvB   0.056000
  7881  H1M   -0.769    3.388    3.115   Hc   376      UvB   0.000000
  7882  H2M   -2.541    3.378    2.988   Hc   376      UvB   0.000000
  7883  H3M   -1.704    2.007    3.738   Hc   376      UvB   0.000000
  7884  O2N   -2.058    2.576    0.570    O   376      UvB  -0.564000
  7885   C3    0.843    0.361   -0.251   Cg   376      UvB   0.152000
  7886   H3    1.518   -0.000    0.528   H1   376      UvB   0.000000
  7887   O3    1.201    1.752   -0.521   Oh   376      UvB  -0.665000
  7888  H3O    2.147    1.898   -0.413   Ho   376      UvB   0.415000
  7889   C4    1.094   -0.471   -1.527   Cg   376      UvB   0.253000
  7890   H4    2.139   -0.369   -1.823   H1   376      UvB   0.000000
  7891   C5    0.774   -1.963   -1.295   Cg   376      UvB   0.136000
  7892   H5    1.481   -2.340   -0.553   H1   376      UvB   0.000000
  7893   C6    0.921   -2.812   -2.570   Cg   376      UvB   0.353000
  7894  H61    1.907   -2.662   -3.014   H1   376      UvB   0.000000
  7895  H62    0.165   -2.542   -3.307   H1   376      UvB   0.000000
  7896   O6    0.773   -4.198   -2.226   Os   376      UvB  -0.481000
  7897   O5   -0.605   -2.118   -0.738   Os   376      UvB  -0.408000
  7898   O4    0.264    0.044   -2.592   Os   376      UvB  -0.444000
  7899   C1   -1.131   -1.399   -0.631   Cg   377      UwA   0.462100
  7900   H1   -0.903   -1.787   -1.623   H2   377      UwA   0.000000
  7901   O5   -0.119   -1.893    0.312   Os   377      UwA  -0.541500
  7902   C5   -0.156   -1.374    1.714   Cg   377      UwA   0.242100
  7903   H5   -1.061   -1.776    2.176   H1   377      UwA   0.000000
  7904   C6    1.044   -1.928    2.513   Cg   377      UwA   0.299500
  7905  H61    0.895   -1.753    3.578   H1   377      UwA   0.000000
  7906  H62    1.118   -3.005    2.361   H1   377      UwA   0.000000
  7907   O6    2.288   -1.314    2.116   Os   377      UwA  -0.459900
  7908   C4   -0.256    0.170    1.739   Cg   377      UwA   0.321300
  7909   H4    0.708    0.597    1.461   H1   377      UwA   0.000000
  7910   C3   -1.331    0.715    0.764   Cg   377      UwA   0.252000
  7911   H3   -2.315    0.422    1.135   H1   377      UwA   0.000000
  7912   O3   -1.280    2.169    0.749   Oh   377      UwA  -0.698700
  7913  H3O   -1.246    2.500    1.655   Ho   377      UwA   0.415900
  7914   C2   -1.165    0.154   -0.670   Cg   377      UwA   0.275000
  7915   H2   -2.030    0.461   -1.263   H1   377      UwA   0.000000
  7916   N2    0.039    0.701   -1.338   Ng   377      UwA  -0.475100
  7917  H2N    0.709    1.188   -0.766    H   377      UwA   0.214200
  7918  C2N    0.242    0.655   -2.658    C   377      UwA   0.590900
  7919  O2N   -0.540    0.095   -3.423    O   377      UwA  -0.575700
  7920  CME    1.532    1.330   -3.159   Cg   377      UwA  -0.034000
  7921  H1M    1.525    2.387   -2.891   Hc   377      UwA   0.000000
  7922  H2M    1.607    1.242   -4.243   Hc   377      UwA   0.000000
  7923  H3M    2.400    0.849   -2.705   Hc   377      UwA   0.000000
  7924   O4   -0.573    0.593    3.098   Os   377      UwA  -0.482100
  7925   C1   -0.542   -1.211    1.543   Cg   378      UwB   0.387000
  7926   H1    0.104   -1.551    2.354   H2   378      UwB   0.000000
  7927   C2   -0.280    0.293    1.237   Cg   378      UwB   0.294000
  7928   H2   -0.390    0.848    2.171   H1   378      UwB   0.000000
  7929   N2   -1.239    0.849    0.249   Ng   378      UwB  -0.558000
  7930  H2N   -1.610    0.218   -0.443    H   378      UwB   0.265000
  7931  C2N   -1.658    2.119    0.261    C   378      UwB   0.585000
  7932  CME   -2.710    2.513   -0.799   Cg   378      UwB   0.056000
  7933  H1M   -2.228    3.098   -1.582   Hc   378      UwB   0.000000
  7934  H2M   -3.495    3.113   -0.337   Hc   378      UwB   0.000000
  7935  H3M   -3.167    1.629   -1.250   Hc   378      UwB   0.000000
  7936  O2N   -1.201    2.936    1.057    O   378      UwB  -0.600000
  7937   C3    1.188    0.444    0.762   Cg   378      UwB   0.217000
  7938   H3    1.838    0.171    1.596   H1   378      UwB   0.000000
  7939   O3    1.483    1.826    0.405   Oh   378      UwB  -0.658000
  7940  H3O    0.885    2.430    0.878   Ho   378      UwB   0.413000
  7941   C4    1.507   -0.479   -0.442   Cg   378      UwB   0.277000
  7942   H4    0.958   -0.129   -1.319   H1   378      UwB   0.000000
  7943   C5    1.125   -1.953   -0.153   Cg   378      UwB   0.321000
  7944   H5    1.785   -2.343    0.625   H1   378      UwB   0.000000
  7945   C6    1.252   -2.852   -1.400   Cg   378      UwB   0.247000
  7946  H61    2.278   -2.849   -1.768   H1   378      UwB   0.000000
  7947  H62    0.602   -2.483   -2.195   H1   378      UwB   0.000000
  7948   O6    0.876   -4.207   -1.082   Os   378      UwB  -0.444000
  7949   O5   -0.283   -2.024    0.353   Os   378      UwB  -0.498000
  7950   O4    2.924   -0.408   -0.724   Os   378      UwB  -0.498000
  7951   C1   -0.132   -1.620   -0.580   Cg   379      UyA   0.468000
  7952   H1    0.127   -2.014   -1.563   H2   379      UyA   0.000000
  7953   O5    0.786   -2.197    0.402   Os   379      UyA  -0.568000
  7954   C5    0.784   -1.627    1.790   Cg   379      UyA   0.246000
  7955   H5   -0.173   -1.894    2.244   H1   379      UyA   0.000000
  7956   C6    1.893   -2.290    2.635   Cg   379      UyA   0.328000
  7957  H61    1.779   -3.374    2.603   H1   379      UyA   0.000000
  7958  H62    1.808   -1.977    3.676   H1   379      UyA   0.000000
  7959   O6    3.210   -1.947    2.152   Os   379      UyA  -0.461000
  7960   C4    0.891   -0.087    1.764   Cg   379      UyA   0.322000
  7961   H4    1.901    0.208    1.477   H1   379      UyA   0.000000
  7962   C3   -0.120    0.560    0.789   Cg   379      UyA   0.165000
  7963   H3   -1.131    0.431    1.180   H1   379      UyA   0.000000
  7964   O3    0.171    1.986    0.718   Oh   379      UyA  -0.630000
  7965  H3O    0.146    2.284   -0.212   Ho   379      UyA   0.413000
  7966   C2   -0.051   -0.065   -0.624   Cg   379      UyA   0.245000
  7967   H2    0.922    0.189   -1.052   H1   379      UyA   0.000000
  7968   N2   -1.094    0.503   -1.517   Ng   379      UyA  -0.552000
  7969  H2N   -1.955   -0.019   -1.579    H   379      UyA   0.236000
  7970  C2N   -0.987    1.667   -2.169    C   379      UyA   0.588000
  7971  O2N   -0.023    2.408   -2.001    O   379      UyA  -0.579000
  7972  CME   -2.136    2.042   -3.131   Cg   379      UyA   0.063000
  7973  H1M   -2.605    2.965   -2.790   Hc   379      UyA   0.000000
  7974  H2M   -1.733    2.196   -4.133   Hc   379      UyA   0.000000
  7975  H3M   -2.892    1.256   -3.173   Hc   379      UyA   0.000000
  7976   O4    0.613    0.417    3.093   Os   379      UyA  -0.478000
  7977   C1   -0.883   -1.281    0.445   Cg   380      UyB   0.287000
  7978   H1   -0.267   -1.681    1.251   H2   380      UyB   0.000000
  7979   C2   -0.547    0.231    0.215   Cg   380      UyB   0.480000
  7980   H2   -1.229    0.608   -0.551   H1   380      UyB   0.000000
  7981   N2   -0.721    1.014    1.464   Ng   380      UyB  -0.722000
  7982  H2N   -0.367    0.614    2.317    H   380      UyB   0.300000
  7983  C2N   -1.489    2.104    1.542    C   380      UyB   0.648000
  7984  CME   -1.646    2.734    2.940   Cg   380      UyB   0.034000
  7985  H1M   -0.788    3.376    3.146   Hc   380      UyB   0.000000
  7986  H2M   -2.555    3.336    2.980   Hc   380      UyB   0.000000
  7987  H3M   -1.707    1.959    3.707   Hc   380      UyB   0.000000
  7988  O2N   -2.014    2.604    0.553    O   380      UyB  -0.576000
  7989   C3    0.905    0.365   -0.326   Cg   380      UyB   0.180000
  7990   H3    1.598    0.042    0.453   H1   380      UyB   0.000000
  7991   O3    1.237    1.744   -0.679   Oh   380      UyB  -0.681000
  7992  H3O    1.257    2.303    0.106   Ho   380      UyB   0.423000
  7993   C4    1.110   -0.521   -1.577   Cg   380      UyB   0.302000
  7994   H4    0.488   -0.150   -2.394   H1   380      UyB   0.000000
  7995   C5    0.764   -1.997   -1.294   Cg   380      UyB   0.208000
  7996   H5    1.439   -2.382   -0.527   H1   380      UyB   0.000000
  7997   C6    0.887   -2.883   -2.548   Cg   380      UyB   0.289000
  7998  H61    1.909   -2.869   -2.927   H1   380      UyB   0.000000
  7999  H62    0.223   -2.521   -3.334   H1   380      UyB   0.000000
  8000   O6    0.533   -4.239   -2.221   Os   380      UyB  -0.459000
  8001   O5   -0.632   -2.068   -0.768   Os   380      UyB  -0.433000
  8002   O4    2.497   -0.441   -1.973   Os   380      UyB  -0.474000
  8003   C1   -0.322   -1.779    0.806   Cg   381      VeA   0.480000
  8004   H1   -1.103   -2.344    1.316   H2   381      VeA   0.000000
  8005   O5   -0.915   -1.148   -0.396   Os   381      VeA  -0.587000
  8006   C5   -0.109   -0.150   -1.144   Cg   381      VeA   0.374000
  8007   H5    0.789   -0.637   -1.527   H1   381      VeA   0.000000
  8008   C6   -0.955    0.343   -2.326   Cg   381      VeA   0.259000
  8009  H61   -1.910    0.740   -1.979   H1   381      VeA   0.000000
  8010  H62   -0.432    1.130   -2.869   H1   381      VeA   0.000000
  8011   O6   -1.191   -0.754   -3.219   Os   381      VeA  -0.451000
  8012   C4    0.297    0.962   -0.157   Cg   381      VeA   0.261000
  8013   H4   -0.605    1.479    0.171   H1   381      VeA   0.000000
  8014   O4    1.136    1.924   -0.823   Oh   381      VeA  -0.721000
  8015  H4O    1.948    1.498   -1.105   Ho   381      VeA   0.415000
  8016   C3    1.028    0.426    1.093   Cg   381      VeA   0.328000
  8017   H3    1.197    1.239    1.800   H1   381      VeA   0.000000
  8018   C2    0.242   -0.712    1.771   Cg   381      VeA   0.179000
  8019   H2    0.860   -1.189    2.535   H1   381      VeA   0.000000
  8020   O2   -0.883   -0.116    2.438   Oh   381      VeA  -0.690000
  8021  H2O   -1.382   -0.798    2.895   Ho   381      VeA   0.447000
  8022   O3    2.311   -0.116    0.720   Os   381      VeA  -0.488000
  8023   C1   -1.433   -0.417    1.378   Cg   382      VeB   0.488000
  8024   H1   -0.878   -0.817    2.227   H2   382      VeB   0.000000
  8025   C2   -1.121    1.099    1.183   Cg   382      VeB   0.184000
  8026   H2   -1.309    1.631    2.117   H1   382      VeB   0.000000
  8027   O2   -1.940    1.710    0.136   Oh   382      VeB  -0.697000
  8028  H2O   -2.869    1.550    0.345   Ho   382      VeB   0.432000
  8029   C3    0.356    1.256    0.778   Cg   382      VeB   0.315000
  8030   H3    0.568    2.307    0.575   H1   382      VeB   0.000000
  8031   C4    0.687    0.414   -0.485   Cg   382      VeB   0.320000
  8032   H4    0.105    0.798   -1.324   H1   382      VeB   0.000000
  8033   C5    0.326   -1.077   -0.275   Cg   382      VeB   0.257000
  8034   H5    0.969   -1.494    0.504   H1   382      VeB   0.000000
  8035   C6    0.517   -1.905   -1.560   Cg   382      VeB   0.278000
  8036  H61    1.555   -1.866   -1.891   H1   382      VeB   0.000000
  8037  H62   -0.112   -1.509   -2.359   H1   382      VeB   0.000000
  8038   O6    0.158   -3.277   -1.320   Os   382      VeB  -0.463000
  8039   O5   -1.100   -1.194    0.178   Os   382      VeB  -0.532000
  8040   O4    2.097    0.557   -0.826   Oh   382      VeB  -0.724000
  8041  H4O    2.243    1.393   -1.282   Ho   382      VeB   0.420000
  8042   O3    1.182    0.840    1.901   Os   382      VeB  -0.472000
  8043   C1   -0.731   -0.636    1.735   Cg   383      VgA   0.509000
  8044   H1   -1.607   -0.797    2.363   H2   383      VgA   0.000000
  8045   O5   -0.960   -1.259    0.433   Os   383      VgA  -0.574000
  8046   C5    0.060   -1.032   -0.643   Cg   383      VgA   0.283000
  8047   H5    1.002   -1.480   -0.323   H1   383      VgA   0.000000
  8048   C6   -0.395   -1.729   -1.946   Cg   383      VgA   0.276000
  8049  H61   -1.432   -1.471   -2.165   H1   383      VgA   0.000000
  8050  H62    0.216   -1.406   -2.789   H1   383      VgA   0.000000
  8051   O6   -0.275   -3.163   -1.830   Os   383      VgA  -0.458000
  8052   C4    0.283    0.483   -0.830   Cg   383      VgA   0.254000
  8053   H4   -0.615    0.931   -1.259   H1   383      VgA   0.000000
  8054   O4    1.390    0.688   -1.746   Oh   383      VgA  -0.710000
  8055  H4O    1.589    1.635   -1.749   Ho   383      VgA   0.436000
  8056   C3    0.610    1.172    0.516   Cg   383      VgA   0.286000
  8057   H3    1.581    0.827    0.878   H1   383      VgA   0.000000
  8058   C2   -0.462    0.890    1.589   Cg   383      VgA   0.246000
  8059   H2   -1.395    1.360    1.275   H1   383      VgA   0.000000
  8060   O2   -0.068    1.491    2.865   Oh   383      VgA  -0.713000
  8061  H2O    0.530    0.888    3.329   Ho   383      VgA   0.437000
  8062   O3    0.678    2.606    0.298   Os   383      VgA  -0.466000
  8063   C1   -1.430   -0.356    1.303   Cg   384      VgB   0.384000
  8064   H1   -0.856   -0.756    2.140   H2   384      VgB   0.000000
  8065   C2   -1.079    1.136    1.048   Cg   384      VgB   0.310000
  8066   H2   -1.777    1.551    0.317   H1   384      VgB   0.000000
  8067   O2   -1.193    1.896    2.287   Oh   384      VgB  -0.718000
  8068  H2O   -2.077    1.750    2.648   Ho   384      VgB   0.437000
  8069   C3    0.363    1.266    0.510   Cg   384      VgB   0.284000
  8070   H3    1.064    1.005    1.305   H1   384      VgB   0.000000
  8071   C4    0.615    0.346   -0.710   Cg   384      VgB   0.276000
  8072   H4    0.021    0.696   -1.556   H1   384      VgB   0.000000
  8073   C5    0.242   -1.118   -0.394   Cg   384      VgB   0.225000
  8074   H5    0.899   -1.492    0.394   H1   384      VgB   0.000000
  8075   C6    0.375   -2.038   -1.623   Cg   384      VgB   0.282000
  8076  H61    1.405   -2.057   -1.979   H1   384      VgB   0.000000
  8077  H62   -0.263   -1.680   -2.433   H1   384      VgB   0.000000
  8078   O6   -0.022   -3.378   -1.274   Os   384      VgB  -0.458000
  8079   O5   -1.165   -1.162    0.107   Os   384      VgB  -0.471000
  8080   O4    2.017    0.406   -1.067   Oh   384      VgB  -0.714000
  8081  H4O    2.258    1.340   -1.138   Ho   384      VgB   0.440000
  8082   O3    0.605    2.644    0.115   Os   384      VgB  -0.471000
  8083   C1   -0.438   -1.733    0.781   Cg   385      VkA   0.473000
  8084   H1   -1.228   -2.267    1.310   H2   385      VkA   0.000000
  8085   O5   -1.039   -1.033   -0.377   Os   385      VkA  -0.540000
  8086   C5   -0.162   -0.110   -1.150   Cg   385      VkA   0.301000
  8087   H5    0.669   -0.692   -1.554   H1   385      VkA   0.000000
  8088   C6   -0.957    0.450   -2.337   Cg   385      VkA   0.287000
  8089  H61   -1.871    0.939   -1.997   H1   385      VkA   0.000000
  8090  H62   -0.357    1.179   -2.882   H1   385      VkA   0.000000
  8091   O6   -1.296   -0.628   -3.220   Os   385      VkA  -0.463000
  8092   C4    0.440    0.959   -0.205   Cg   385      VkA   0.196000
  8093   H4    1.169    1.558   -0.754   H1   385      VkA   0.000000
  8094   O4   -0.607    1.840    0.246   Oh   385      VkA  -0.712000
  8095  H4O   -1.026    2.253   -0.513   Ho   385      VkA   0.420000
  8096   C3    1.102    0.354    1.048   Cg   385      VkA   0.354000
  8097   H3    1.358    1.144    1.757   H1   385      VkA   0.000000
  8098   C2    0.174   -0.677    1.727   Cg   385      VkA   0.281000
  8099   H2   -0.664   -0.118    2.145   H1   385      VkA   0.000000
  8100   O2    0.836   -1.308    2.838   Oh   385      VkA  -0.716000
  8101  H2O    1.574   -1.831    2.514   Ho   385      VkA   0.427000
  8102   O3    2.323   -0.279    0.622   Os   385      VkA  -0.502000
  8103   C1   -1.295   -0.497    1.338   Cg   386      VkB   0.449000
  8104   H1   -0.713   -0.928    2.154   H2   386      VkB   0.000000
  8105   C2   -0.990    1.021    1.169   Cg   386      VkB   0.308000
  8106   H2   -1.681    1.439    0.436   H1   386      VkB   0.000000
  8107   O2   -1.168    1.753    2.422   Oh   386      VkB  -0.710000
  8108  H2O   -2.067    1.596    2.735   Ho   386      VkB   0.426000
  8109   C3    0.455    1.227    0.655   Cg   386      VkB   0.253000
  8110   H3    0.616    2.287    0.454   H1   386      VkB   0.000000
  8111   C4    0.734    0.413   -0.628   Cg   386      VkB   0.217000
  8112   H4    1.793    0.489   -0.881   H1   386      VkB   0.000000
  8113   C5    0.372   -1.084   -0.431   Cg   386      VkB   0.303000
  8114   H5    1.058   -1.499    0.311   H1   386      VkB   0.000000
  8115   C6    0.520   -1.916   -1.721   Cg   386      VkB   0.259000
  8116  H61    1.519   -1.787   -2.137   H1   386      VkB   0.000000
  8117  H62   -0.206   -1.594   -2.468   H1   386      VkB   0.000000
  8118   O6    0.312   -3.313   -1.438   Os   386      VkB  -0.448000
  8119   O5   -1.022   -1.231    0.100   Os   386      VkB  -0.514000
  8120   O4   -0.025    0.992   -1.725   Oh   386      VkB  -0.700000
  8121  H4O    0.378    1.819   -2.013   Ho   386      VkB   0.425000
  8122   O3    1.411    0.814    1.666   Os   386      VkB  -0.462000
  8123   C1   -0.501   -1.709    0.777   Cg   387      VlA   0.465000
  8124   H1   -1.315   -2.224    1.285   H2   387      VlA   0.000000
  8125   O5   -1.054   -1.001   -0.402   Os   387      VlA  -0.527000
  8126   C5   -0.125   -0.110   -1.154   Cg   387      VlA   0.216000
  8127   H5    0.711   -0.713   -1.515   H1   387      VlA   0.000000
  8128   C6   -0.860    0.450   -2.380   Cg   387      VlA   0.308000
  8129  H61   -1.777    0.962   -2.084   H1   387      VlA   0.000000
  8130  H62   -0.223    1.159   -2.909   H1   387      VlA   0.000000
  8131   O6   -1.184   -0.633   -3.262   Os   387      VlA  -0.460000
  8132   C4    0.449    0.955   -0.196   Cg   387      VlA   0.204000
  8133   H4    1.189    1.561   -0.721   H1   387      VlA   0.000000
  8134   O4   -0.633    1.811    0.234   Oh   387      VlA  -0.673000
  8135  H4O   -1.037    2.225   -0.532   Ho   387      VlA   0.436000
  8136   C3    1.101    0.281    1.031   Cg   387      VlA   0.253000
  8137   H3    1.972   -0.282    0.695   H1   387      VlA   0.000000
  8138   C2    0.123   -0.674    1.743   Cg   387      VlA   0.339000
  8139   H2   -0.688   -0.091    2.182   H1   387      VlA   0.000000
  8140   O2    0.798   -1.364    2.812   Oh   387      VlA  -0.724000
  8141  H2O    1.504   -1.903    2.448   Ho   387      VlA   0.431000
  8142   O3    1.550    1.298    1.946   Os   387      VlA  -0.462000
  8143   C1   -1.299   -0.408    1.350   Cg   388      VlB   0.374000
  8144   H1   -0.727   -0.806    2.189   H2   388      VlB   0.000000
  8145   C2   -0.947    1.092    1.115   Cg   388      VlB   0.357000
  8146   H2   -1.649    1.525    0.398   H1   388      VlB   0.000000
  8147   O2   -1.046    1.827    2.371   Oh   388      VlB  -0.726000
  8148  H2O   -1.930    1.680    2.729   Ho   388      VlB   0.432000
  8149   C3    0.497    1.223    0.575   Cg   388      VlB   0.259000
  8150   H3    1.191    0.900    1.353   H1   388      VlB   0.000000
  8151   C4    0.736    0.346   -0.676   Cg   388      VlB   0.203000
  8152   H4    1.785    0.411   -0.965   H1   388      VlB   0.000000
  8153   C5    0.376   -1.128   -0.381   Cg   388      VlB   0.140000
  8154   H5    1.062   -1.488    0.389   H1   388      VlB   0.000000
  8155   C6    0.520   -2.043   -1.610   Cg   388      VlB   0.319000
  8156  H61    1.517   -1.947   -2.040   H1   388      VlB   0.000000
  8157  H62   -0.214   -1.783   -2.375   H1   388      VlB   0.000000
  8158   O6    0.316   -3.406   -1.205   Os   388      VlB  -0.468000
  8159   O5   -1.015   -1.219    0.159   Os   388      VlB  -0.402000
  8160   O4   -0.074    0.834   -1.774   Oh   388      VlB  -0.664000
  8161  H4O    0.096    1.782   -1.854   Ho   388      VlB   0.437000
  8162   O3    0.805    2.607    0.252   Os   388      VlB  -0.455000
  8163   C1   -0.758   -0.758    1.806   Cg   389      VmA   0.433000
  8164   H1   -1.691   -0.938    2.340   H2   389      VmA   0.000000
  8165   O5   -0.840   -1.394    0.483   Os   389      VmA  -0.507000
  8166   C5    0.234   -1.099   -0.517   Cg   389      VmA   0.276000
  8167   H5    1.164   -1.545   -0.156   H1   389      VmA   0.000000
  8168   C6   -0.130   -1.751   -1.869   Cg   389      VmA   0.266000
  8169  H61   -1.149   -1.483   -2.151   H1   389      VmA   0.000000
  8170  H62    0.539   -1.402   -2.655   H1   389      VmA   0.000000
  8171   O6   -0.019   -3.189   -1.795   Os   389      VmA  -0.460000
  8172   C4    0.448    0.427   -0.645   Cg   389      VmA   0.326000
  8173   H4   -0.419    0.885   -1.124   H1   389      VmA   0.000000
  8174   O4    1.620    0.669   -1.466   Oh   389      VmA  -0.733000
  8175  H4O    1.793    1.619   -1.446   Ho   389      VmA   0.438000
  8176   C3    0.677    1.064    0.749   Cg   389      VmA   0.252000
  8177   H3    1.588    0.644    1.179   H1   389      VmA   0.000000
  8178   C2   -0.499    0.772    1.708   Cg   389      VmA   0.245000
  8179   H2   -0.260    1.163    2.698   H1   389      VmA   0.000000
  8180   O2   -1.700    1.452    1.235   Oh   389      VmA  -0.717000
  8181  H2O   -1.467    2.356    0.991   Ho   389      VmA   0.446000
  8182   O3    0.869    2.507    0.634   Os   389      VmA  -0.459000
  8183   C1   -1.354   -0.396    1.481   Cg   390      VmB   0.314000
  8184   H1   -0.720   -0.697    2.316   H2   390      VmB   0.000000
  8185   C2   -1.129    1.106    1.153   Cg   390      VmB   0.241000
  8186   H2   -1.348    1.714    2.032   H1   390      VmB   0.000000
  8187   O2   -2.010    1.511    0.063   Oh   390      VmB  -0.664000
  8188  H2O   -2.913    1.297    0.325   Ho   390      VmB   0.431000
  8189   C3    0.355    1.272    0.750   Cg   390      VmB   0.263000
  8190   H3    0.970    0.923    1.582   H1   390      VmB   0.000000
  8191   C4    0.681    0.412   -0.502   Cg   390      VmB   0.349000
  8192   H4    0.106    0.767   -1.358   H1   390      VmB   0.000000
  8193   C5    0.357   -1.079   -0.232   Cg   390      VmB   0.206000
  8194   H5    1.056   -1.460    0.515   H1   390      VmB   0.000000
  8195   C6    0.486   -1.933   -1.506   Cg   390      VmB   0.273000
  8196  H61    1.499   -1.876   -1.904   H1   390      VmB   0.000000
  8197  H62   -0.204   -1.577   -2.272   H1   390      VmB   0.000000
  8198   O6    0.184   -3.308   -1.206   Os   390      VmB  -0.455000
  8199   O5   -1.028   -1.233    0.317   Os   390      VmB  -0.393000
  8200   O4    2.095    0.523   -0.815   Oh   390      VmB  -0.746000
  8201  H4O    2.238    1.353   -1.283   Ho   390      VmB   0.443000
  8202   O3    0.681    2.678    0.546   Os   390      VmB  -0.456000
  8203   C1   -0.513   -1.748    0.758   Cg   391      VnA   0.478000
  8204   H1   -1.303   -2.332    1.231   H2   391      VnA   0.000000
  8205   O5   -1.073   -1.087   -0.441   Os   391      VnA  -0.611000
  8206   C5   -0.246   -0.067   -1.142   Cg   391      VnA   0.404000
  8207   H5    0.642   -0.556   -1.547   H1   391      VnA   0.000000
  8208   C6   -1.082    0.494   -2.302   Cg   391      VnA   0.280000
  8209  H61   -2.025    0.900   -1.935   H1   391      VnA   0.000000
  8210  H62   -0.540    1.288   -2.815   H1   391      VnA   0.000000
  8211   O6   -1.349   -0.560   -3.237   Os   391      VnA  -0.461000
  8212   C4    0.190    1.003   -0.117   Cg   391      VnA   0.167000
  8213   H4   -0.696    1.548    0.211   H1   391      VnA   0.000000
  8214   O4    1.076    1.946   -0.748   Oh   391      VnA  -0.733000
  8215  H4O    1.863    1.490   -1.054   Ho   391      VnA   0.444000
  8216   C3    0.881    0.417    1.133   Cg   391      VnA   0.330000
  8217   H3    1.066    1.208    1.862   H1   391      VnA   0.000000
  8218   C2   -0.039   -0.657    1.744   Cg   391      VnA   0.228000
  8219   H2   -0.936   -0.143    2.094   H1   391      VnA   0.000000
  8220   O2    0.572   -1.250    2.904   Oh   391      VnA  -0.668000
  8221  H2O    1.371   -1.713    2.641   Ho   391      VnA   0.415000
  8222   O3    2.143   -0.180    0.760   Os   391      VnA  -0.467000
  8223   C1   -1.409   -0.412    1.282   Cg   392      VnB   0.422000
  8224   H1   -0.827   -0.818    2.113   H2   392      VnB   0.000000
  8225   C2   -1.105    1.101    1.068   Cg   392      VnB   0.301000
  8226   H2   -1.806    1.501    0.331   H1   392      VnB   0.000000
  8227   O2   -1.266    1.863    2.300   Oh   392      VnB  -0.703000
  8228  H2O   -2.172    1.747    2.614   Ho   392      VnB   0.424000
  8229   C3    0.329    1.302    0.530   Cg   392      VnB   0.234000
  8230   H3    0.487    2.359    0.307   H1   392      VnB   0.000000
  8231   C4    0.533    0.464   -0.753   Cg   392      VnB   0.286000
  8232   H4   -0.164    0.815   -1.515   H1   392      VnB   0.000000
  8233   C5    0.264   -1.037   -0.491   Cg   392      VnB   0.198000
  8234   H5    0.974   -1.406    0.250   H1   392      VnB   0.000000
  8235   C6    0.403   -1.898   -1.762   Cg   392      VnB   0.313000
  8236  H61    1.417   -1.837   -2.159   H1   392      VnB   0.000000
  8237  H62   -0.291   -1.555   -2.530   H1   392      VnB   0.000000
  8238   O6    0.110   -3.268   -1.440   Os   392      VnB  -0.465000
  8239   O5   -1.121   -1.184    0.064   Os   392      VnB  -0.507000
  8240   O4    1.876    0.662   -1.254   Oh   392      VnB  -0.707000
  8241  H4O    2.474    0.707   -0.497   Ho   392      VnB   0.430000
  8242   O3    1.293    0.894    1.544   Os   392      VnB  -0.420000
  8243   C1   -0.335   -1.779    0.777   Cg   393      VtA   0.456000
  8244   H1   -1.164   -2.290    1.268   H2   393      VtA   0.000000
  8245   O5   -0.861   -1.088   -0.428   Os   393      VtA  -0.480000
  8246   C5    0.062   -0.186   -1.168   Cg   393      VtA   0.157000
  8247   H5    0.918   -0.776   -1.503   H1   393      VtA   0.000000
  8248   C6   -0.658    0.345   -2.415   Cg   393      VtA   0.304000
  8249  H61   -1.593    0.838   -2.144   H1   393      VtA   0.000000
  8250  H62   -0.027    1.063   -2.938   H1   393      VtA   0.000000
  8251   O6   -0.937   -0.754   -3.292   Os   393      VtA  -0.462000
  8252   C4    0.596    0.903   -0.212   Cg   393      VtA   0.434000
  8253   H4    1.354    1.498   -0.724   H1   393      VtA   0.000000
  8254   O4   -0.491    1.771    0.168   Oh   393      VtA  -0.731000
  8255  H4O   -0.865    2.178   -0.618   Ho   393      VtA   0.417000
  8256   C3    1.214    0.242    1.038   Cg   393      VtA   0.124000
  8257   H3    2.090   -0.313    0.700   H1   393      VtA   0.000000
  8258   C2    0.296   -0.772    1.759   Cg   393      VtA   0.245000
  8259   H2    0.863   -1.300    2.527   H1   393      VtA   0.000000
  8260   O2   -0.797   -0.089    2.401   Oh   393      VtA  -0.655000
  8261  H2O   -1.358   -0.729    2.845   Ho   393      VtA   0.436000
  8262   O3    1.692    1.240    1.958   Os   393      VtA  -0.439000
  8263   C1   -1.203   -1.222    0.988   Cg   394      VtB   0.306000
  8264   H1   -0.653   -2.164    0.980   H2   394      VtB   0.000000
  8265   C2   -0.478   -0.217    1.908   Cg   394      VtB   0.340000
  8266   H2   -0.361   -0.642    2.906   H1   394      VtB   0.000000
  8267   O2   -1.261    0.992    2.002   Oh   394      VtB  -0.637000
  8268  H2O   -2.131    0.782    2.352   Ho   394      VtB   0.397000
  8269   C3    0.909    0.104    1.307   Cg   394      VtB   0.174000
  8270   H3    1.495   -0.814    1.359   H1   394      VtB   0.000000
  8271   C4    0.890    0.538   -0.178   Cg   394      VtB   0.314000
  8272   H4    1.912    0.596   -0.555   H1   394      VtB   0.000000
  8273   C5    0.086   -0.480   -1.022   Cg   394      VtB   0.031000
  8274   H5    0.632   -1.425   -1.000   H1   394      VtB   0.000000
  8275   C6   -0.115   -0.092   -2.494   Cg   394      VtB   0.349000
  8276  H61    0.845    0.134   -2.959   H1   394      VtB   0.000000
  8277  H62   -0.758    0.785   -2.581   H1   394      VtB   0.000000
  8278   O6   -0.719   -1.194   -3.184   Os   394      VtB  -0.454000
  8279   O5   -1.245   -0.699   -0.397   Os   394      VtB  -0.354000
  8280   O4    0.280    1.839   -0.309   Oh   394      VtB  -0.626000
  8281  H4O    0.277    2.100   -1.233   Ho   394      VtB   0.413000
  8282   O3    1.599    1.077    2.112   Os   394      VtB  -0.447000
  8283   C1   -0.086   -1.341   -0.523   Cg   395      VvA   0.389000
  8284   H1    0.171   -1.677   -1.528   H2   395      VvA   0.000000
  8285   O5    0.942   -1.833    0.404   Os   395      VvA  -0.466000
  8286   C5    0.931   -1.303    1.804   Cg   395      VvA   0.112000
  8287   H5    0.006   -1.647    2.269   H1   395      VvA   0.000000
  8288   C6    2.082   -1.916    2.628   Cg   395      VvA   0.362000
  8289  H61    2.017   -1.571    3.660   H1   395      VvA   0.000000
  8290  H62    2.005   -3.003    2.630   H1   395      VvA   0.000000
  8291   O6    3.358   -1.539    2.092   Os   395      VvA  -0.481000
  8292   C4    0.885    0.245    1.808   Cg   395      VvA   0.326000
  8293   H4    0.739    0.595    2.831   H1   395      VvA   0.000000
  8294   O4    2.138    0.785    1.317   Oh   395      VvA  -0.701000
  8295  H4O    1.999    1.734    1.190   Ho   395      VvA   0.442000
  8296   C3   -0.269    0.770    0.922   Cg   395      VvA   0.176000
  8297   H3   -1.210    0.432    1.360   H1   395      VvA   0.000000
  8298   C2   -0.175    0.221   -0.525   Cg   395      VvA   0.399000
  8299   H2    0.748    0.601   -0.968   H1   395      VvA   0.000000
  8300   N2   -1.310    0.707   -1.347   Ng   395      VvA  -0.595000
  8301  H2N   -2.216    0.741   -0.910    H   395      VvA   0.238000
  8302  C2N   -1.234    0.831   -2.675    C   395      VvA   0.625000
  8303  O2N   -0.190    0.629   -3.287    O   395      VvA  -0.605000
  8304  CME   -2.530    1.251   -3.397   Cg   395      VvA   0.032000
  8305  H1M   -2.764    2.289   -3.156   Hc   395      VvA   0.000000
  8306  H2M   -2.406    1.157   -4.477   Hc   395      VvA   0.000000
  8307  H3M   -3.357    0.612   -3.083   Hc   395      VvA   0.000000
  8308   O3   -0.272    2.231    0.960   Os   395      VvA  -0.447000
  8309   C1   -0.835   -1.302    0.554   Cg   396      VvB   0.305000
  8310   H1   -0.214   -1.679    1.368   H2   396      VvB   0.000000
  8311   C2   -0.548    0.225    0.341   Cg   396      VvB   0.544000
  8312   H2   -1.231    0.592   -0.426   H1   396      VvB   0.000000
  8313   N2   -0.754    0.986    1.595   Ng   396      VvB  -0.686000
  8314  H2N   -0.364    0.614    2.444    H   396      VvB   0.254000
  8315  C2N   -1.461    2.118    1.646    C   396      VvB   0.586000
  8316  CME   -1.573    2.792    3.029   Cg   396      VvB   0.056000
  8317  H1M   -0.698    3.422    3.197   Hc   396      VvB   0.000000
  8318  H2M   -2.469    3.412    3.070   Hc   396      VvB   0.000000
  8319  H3M   -1.632    2.041    3.820   Hc   396      VvB   0.000000
  8320  O2N   -1.987    2.610    0.652    O   396      VvB  -0.564000
  8321   C3    0.915    0.395   -0.169   Cg   396      VvB   0.152000
  8322   H3    1.590    0.034    0.610   H1   396      VvB   0.000000
  8323   C4    1.166   -0.437   -1.445   Cg   396      VvB   0.253000
  8324   H4    2.211   -0.334   -1.741   H1   396      VvB   0.000000
  8325   C5    0.846   -1.929   -1.213   Cg   396      VvB   0.136000
  8326   H5    1.553   -2.306   -0.471   H1   396      VvB   0.000000
  8327   C6    0.993   -2.778   -2.488   Cg   396      VvB   0.353000
  8328  H61    1.978   -2.628   -2.932   H1   396      VvB   0.000000
  8329  H62    0.236   -2.508   -3.225   H1   396      VvB   0.000000
  8330   O6    0.844   -4.164   -2.144   Os   396      VvB  -0.481000
  8331   O5   -0.533   -2.084   -0.656   Os   396      VvB  -0.408000
  8332   O4    0.336    0.078   -2.510   Oh   396      VvB  -0.690000
  8333  H4O    0.360    1.045   -2.469   Ho   396      VvB   0.440000
  8334   O3    1.273    1.787   -0.439   Os   396      VvB  -0.444000
  8335   C1   -1.123   -1.315   -0.696   Cg   397      VwA   0.462100
  8336   H1   -0.894   -1.703   -1.688   H2   397      VwA   0.000000
  8337   O5   -0.111   -1.809    0.247   Os   397      VwA  -0.541500
  8338   C5   -0.148   -1.290    1.649   Cg   397      VwA   0.242100
  8339   H5   -1.052   -1.692    2.111   H1   397      VwA   0.000000
  8340   C6    1.053   -1.845    2.448   Cg   397      VwA   0.299500
  8341  H61    0.903   -1.669    3.513   H1   397      VwA   0.000000
  8342  H62    1.126   -2.921    2.296   H1   397      VwA   0.000000
  8343   O6    2.297   -1.230    2.051   Os   397      VwA  -0.459900
  8344   C4   -0.248    0.253    1.674   Cg   397      VwA   0.321300
  8345   H4    0.716    0.681    1.396   H1   397      VwA   0.000000
  8346   O4   -0.564    0.677    3.033   Oh   397      VwA  -0.730500
  8347  H4O   -1.456    0.407    3.281   Ho   397      VwA   0.442400
  8348   C3   -1.323    0.798    0.699   Cg   397      VwA   0.252000
  8349   H3   -2.306    0.506    1.070   H1   397      VwA   0.000000
  8350   C2   -1.157    0.238   -0.735   Cg   397      VwA   0.275000
  8351   H2   -2.021    0.545   -1.328   H1   397      VwA   0.000000
  8352   N2    0.048    0.785   -1.403   Ng   397      VwA  -0.475100
  8353  H2N    0.717    1.272   -0.831    H   397      VwA   0.214200
  8354  C2N    0.250    0.739   -2.723    C   397      VwA   0.590900
  8355  O2N   -0.532    0.179   -3.488    O   397      VwA  -0.575700
  8356  CME    1.540    1.413   -3.224   Cg   397      VwA  -0.034000
  8357  H1M    1.533    2.471   -2.956   Hc   397      VwA   0.000000
  8358  H2M    1.616    1.325   -4.308   Hc   397      VwA   0.000000
  8359  H3M    2.408    0.933   -2.770   Hc   397      VwA   0.000000
  8360   O3   -1.271    2.252    0.684   Os   397      VwA  -0.476800
  8361   C1   -0.630   -1.138    1.606   Cg   398      VwB   0.387000
  8362   H1    0.016   -1.478    2.417   H2   398      VwB   0.000000
  8363   C2   -0.368    0.366    1.300   Cg   398      VwB   0.294000
  8364   H2   -0.478    0.921    2.234   H1   398      VwB   0.000000
  8365   N2   -1.327    0.923    0.312   Ng   398      VwB  -0.558000
  8366  H2N   -1.697    0.292   -0.380    H   398      VwB   0.265000
  8367  C2N   -1.746    2.192    0.323    C   398      VwB   0.585000
  8368  CME   -2.798    2.586   -0.736   Cg   398      VwB   0.056000
  8369  H1M   -2.315    3.171   -1.519   Hc   398      VwB   0.000000
  8370  H2M   -3.582    3.186   -0.274   Hc   398      VwB   0.000000
  8371  H3M   -3.255    1.702   -1.187   Hc   398      VwB   0.000000
  8372  O2N   -1.289    3.009    1.120    O   398      VwB  -0.600000
  8373   C3    1.100    0.517    0.825   Cg   398      VwB   0.217000
  8374   H3    1.750    0.244    1.659   H1   398      VwB   0.000000
  8375   C4    1.419   -0.406   -0.379   Cg   398      VwB   0.277000
  8376   H4    0.870   -0.056   -1.256   H1   398      VwB   0.000000
  8377   C5    1.037   -1.879   -0.090   Cg   398      VwB   0.321000
  8378   H5    1.697   -2.269    0.688   H1   398      VwB   0.000000
  8379   C6    1.164   -2.778   -1.337   Cg   398      VwB   0.247000
  8380  H61    2.190   -2.776   -1.705   H1   398      VwB   0.000000
  8381  H62    0.514   -2.410   -2.132   H1   398      VwB   0.000000
  8382   O6    0.788   -4.134   -1.019   Os   398      VwB  -0.444000
  8383   O5   -0.370   -1.951    0.416   Os   398      VwB  -0.498000
  8384   O4    2.836   -0.335   -0.661   Oh   398      VwB  -0.743000
  8385  H4O    3.080    0.601   -0.691   Ho   398      VwB   0.439000
  8386   O3    1.395    1.900    0.468   Os   398      VwB  -0.439000
  8387   C1   -0.147   -1.585   -0.704   Cg   399      VyA   0.468000
  8388   H1    0.112   -1.979   -1.687   H2   399      VyA   0.000000
  8389   O5    0.771   -2.162    0.278   Os   399      VyA  -0.568000
  8390   C5    0.769   -1.593    1.666   Cg   399      VyA   0.246000
  8391   H5   -0.188   -1.859    2.120   H1   399      VyA   0.000000
  8392   C6    1.878   -2.255    2.512   Cg   399      VyA   0.328000
  8393  H61    1.764   -3.339    2.479   H1   399      VyA   0.000000
  8394  H62    1.792   -1.943    3.552   H1   399      VyA   0.000000
  8395   O6    3.195   -1.912    2.029   Os   399      VyA  -0.461000
  8396   C4    0.875   -0.052    1.641   Cg   399      VyA   0.322000
  8397   H4    1.885    0.243    1.353   H1   399      VyA   0.000000
  8398   O4    0.598    0.452    2.969   Oh   399      VyA  -0.733000
  8399  H4O    0.530    1.413    2.882   Ho   399      VyA   0.449000
  8400   C3   -0.135    0.595    0.666   Cg   399      VyA   0.165000
  8401   H3   -1.146    0.466    1.057   H1   399      VyA   0.000000
  8402   C2   -0.066   -0.030   -0.748   Cg   399      VyA   0.245000
  8403   H2    0.906    0.224   -1.175   H1   399      VyA   0.000000
  8404   N2   -1.109    0.538   -1.640   Ng   399      VyA  -0.552000
  8405  H2N   -1.970    0.016   -1.703    H   399      VyA   0.236000
  8406  C2N   -1.003    1.701   -2.293    C   399      VyA   0.588000
  8407  O2N   -0.038    2.443   -2.125    O   399      VyA  -0.579000
  8408  CME   -2.151    2.077   -3.254   Cg   399      VyA   0.063000
  8409  H1M   -2.621    3.000   -2.914   Hc   399      VyA   0.000000
  8410  H2M   -1.749    2.231   -4.257   Hc   399      VyA   0.000000
  8411  H3M   -2.908    1.290   -3.296   Hc   399      VyA   0.000000
  8412   O3    0.155    2.021    0.594   Os   399      VyA  -0.411000
  8413   C1   -0.939   -1.211    0.528   Cg   400      VyB   0.287000
  8414   H1   -0.323   -1.611    1.334   H2   400      VyB   0.000000
  8415   C2   -0.603    0.301    0.298   Cg   400      VyB   0.480000
  8416   H2   -1.285    0.678   -0.468   H1   400      VyB   0.000000
  8417   N2   -0.777    1.083    1.547   Ng   400      VyB  -0.722000
  8418  H2N   -0.423    0.683    2.400    H   400      VyB   0.300000
  8419  C2N   -1.545    2.173    1.625    C   400      VyB   0.648000
  8420  CME   -1.702    2.804    3.023   Cg   400      VyB   0.034000
  8421  H1M   -0.844    3.445    3.229   Hc   400      VyB   0.000000
  8422  H2M   -2.611    3.405    3.063   Hc   400      VyB   0.000000
  8423  H3M   -1.763    2.028    3.790   Hc   400      VyB   0.000000
  8424  O2N   -2.070    2.673    0.636    O   400      VyB  -0.576000
  8425   C3    0.849    0.435   -0.243   Cg   400      VyB   0.180000
  8426   H3    1.542    0.112    0.536   H1   400      VyB   0.000000
  8427   C4    1.054   -0.452   -1.494   Cg   400      VyB   0.302000
  8428   H4    0.432   -0.080   -2.311   H1   400      VyB   0.000000
  8429   C5    0.708   -1.928   -1.211   Cg   400      VyB   0.208000
  8430   H5    1.383   -2.312   -0.444   H1   400      VyB   0.000000
  8431   C6    0.831   -2.814   -2.465   Cg   400      VyB   0.289000
  8432  H61    1.853   -2.799   -2.844   H1   400      VyB   0.000000
  8433  H62    0.167   -2.452   -3.251   H1   400      VyB   0.000000
  8434   O6    0.477   -4.170   -2.138   Os   400      VyB  -0.459000
  8435   O5   -0.688   -1.999   -0.685   Os   400      VyB  -0.433000
  8436   O4    2.441   -0.372   -1.890   Oh   400      VyB  -0.716000
  8437  H4O    2.654    0.568   -1.970   Ho   400      VyB   0.436000
  8438   O3    1.181    1.814   -0.596   Os   400      VyB  -0.452000
  8439   C1   -0.806   -1.568    0.193   Cg   401      WaA   0.448000
  8440   H1   -1.725   -1.958    0.632   H2   401      WaA   0.000000
  8441   O5   -1.149   -0.900   -1.087   Os   401      WaA  -0.564000
  8442   C5   -0.100   -0.099   -1.753   Cg   401      WaA   0.379000
  8443  H5A    0.718   -0.754   -2.058   H1   401      WaA   0.000000
  8444  H5E   -0.517    0.367   -2.645   H1   401      WaA   0.000000
  8445   C4    0.393    0.970   -0.772   Cg   401      WaA   0.245000
  8446   H4   -0.434    1.649   -0.562   H1   401      WaA   0.000000
  8447   O4    1.439    1.733   -1.396   Os   401      WaA  -0.508000
  8448   C3    0.890    0.377    0.563   Cg   401      WaA   0.335000
  8449   H3    1.128    1.182    1.261   H1   401      WaA   0.000000
  8450   C2   -0.153   -0.575    1.184   Cg   401      WaA   0.268000
  8451   H2    0.291   -1.120    2.019   H1   401      WaA   0.000000
  8452   O2   -1.211    0.239    1.716   Oh   401      WaA  -0.735000
  8453  H2O   -0.850    0.851    2.362   Ho   401      WaA   0.443000
  8454   O3    2.087   -0.395    0.345   Os   401      WaA  -0.505000
  8455   C1   -1.212   -0.743    0.904   Cg   402      WaB   0.379000
  8456   H1   -0.676   -1.149    1.764   H2   402      WaB   0.000000
  8457   C2   -0.876    0.773    0.729   Cg   402      WaB   0.300000
  8458   H2   -1.058    1.297    1.669   H1   402      WaB   0.000000
  8459   O2   -1.699    1.392   -0.306   Oh   402      WaB  -0.700000
  8460  H2O   -2.611    1.118   -0.147   Ho   402      WaB   0.418000
  8461   C3    0.603    0.927    0.318   Cg   402      WaB   0.297000
  8462   H3    0.813    1.974    0.096   H1   402      WaB   0.000000
  8463   C4    0.940    0.063   -0.925   Cg   402      WaB   0.224000
  8464   H4    0.365    0.430   -1.777   H1   402      WaB   0.000000
  8465   C5    0.564   -1.418   -0.691   Cg   402      WaB   0.356000
  8466  H5A    1.194   -1.856    0.085   H1   402      WaB   0.000000
  8467  H5E    0.714   -1.989   -1.608   H1   402      WaB   0.000000
  8468   O5   -0.860   -1.528   -0.283   Os   402      WaB  -0.529000
  8469   O4    2.353    0.183   -1.261   Os   402      WaB  -0.484000
  8470   O3    1.447    0.527    1.433   Os   402      WaB  -0.455000
  8471   C2   -0.497   -0.851    0.824   Cg   403      WbA   0.130000
  8472   C1   -1.883   -1.240    1.425   Cg   403      WbA   0.428000
  8473  H11   -2.082   -2.296    1.240   H1   403      WbA   0.000000
  8474  H12   -1.880   -1.087    2.505   H1   403      WbA   0.000000
  8475   O1   -2.956   -0.457    0.861   Oh   403      WbA  -0.678000
  8476  H1O   -2.890    0.429    1.228   Ho   403      WbA   0.399000
  8477   O6   -0.352   -1.391   -0.549   Os   403      WbA  -0.507000
  8478   C6    0.903   -1.064   -1.284   Cg   403      WbA   0.341000
  8479  H6A    1.734   -1.596   -0.816   H1   403      WbA   0.000000
  8480  H6E    0.815   -1.420   -2.310   H1   403      WbA   0.000000
  8481   C5    1.174    0.456   -1.273   Cg   403      WbA   0.224000
  8482   H5    0.432    0.941   -1.908   H1   403      WbA   0.000000
  8483   O5    2.492    0.693   -1.844   Oh   403      WbA  -0.690000
  8484  H5O    2.550    1.607   -2.142   Ho   403      WbA   0.429000
  8485   C4    1.091    1.042    0.159   Cg   403      WbA   0.335000
  8486   H4    1.892    0.636    0.780   H1   403      WbA   0.000000
  8487   O4    1.245    2.493    0.094   Os   403      WbA  -0.497000
  8488   C3   -0.284    0.693    0.778   Cg   403      WbA   0.372000
  8489   H3   -1.051    1.128    0.135   H1   403      WbA   0.000000
  8490   O3   -0.451    1.285    2.098   Os   403      WbA  -0.480000
  8491   C2   -1.371   -0.423    0.489   Cg   404      WbB   0.227000
  8492   C1   -0.649   -1.038    1.731   Cg   404      WbB   0.281000
  8493  H11    0.421   -0.832    1.682   H1   404      WbB   0.000000
  8494  H12   -1.030   -0.593    2.651   H1   404      WbB   0.000000
  8495   O1   -0.833   -2.469    1.802   Oh   404      WbB  -0.626000
  8496  H1O   -0.380   -2.811    2.577   Ho   404      WbB   0.395000
  8497   C3   -1.071    1.098    0.285   Cg   404      WbB   0.464000
  8498   H3   -1.771    1.497   -0.452   H1   404      WbB   0.000000
  8499   C4    0.371    1.358   -0.220   Cg   404      WbB   0.108000
  8500   H4    1.078    1.098    0.570   H1   404      WbB   0.000000
  8501   C5    0.672    0.505   -1.473   Cg   404      WbB   0.340000
  8502   H5    0.083    0.872   -2.315   H1   404      WbB   0.000000
  8503   C6    0.363   -0.992   -1.261   Cg   404      WbB   0.311000
  8504  H6A    1.060   -1.429   -0.543   H1   404      WbB   0.000000
  8505  H6E    0.463   -1.533   -2.202   H1   404      WbB   0.000000
  8506   O6   -1.023   -1.152   -0.754   Os   404      WbB  -0.477000
  8507   O5    2.074    0.651   -1.784   Oh   404      WbB  -0.720000
  8508  H5O    2.260    1.599   -1.762   Ho   404      WbB   0.429000
  8509   O4    0.549    2.769   -0.550   Os   404      WbB  -0.434000
  8510   O3   -1.265    1.823    1.529   Os   404      WbB  -0.492000
  8511   C2   -0.531   -0.798    0.937   Cg   405      WcA   0.345000
  8512   C1   -1.993   -1.135    1.392   Cg   405      WcA   0.386000
  8513  H11   -2.133   -2.216    1.436   H1   405      WcA   0.000000
  8514  H12   -2.161   -0.738    2.395   H1   405      WcA   0.000000
  8515   O1   -2.996   -0.583    0.509   Oh   405      WcA  -0.696000
  8516  H1O   -2.684    0.297    0.251   Ho   405      WcA   0.402000
  8517   O6   -0.261   -1.384   -0.398   Os   405      WcA  -0.620000
  8518   C6    1.005   -1.028   -1.085   Cg   405      WcA   0.437000
  8519  H6A    1.849   -1.450   -0.538   H1   405      WcA   0.000000
  8520  H6E    0.998   -1.468   -2.083   H1   405      WcA   0.000000
  8521   C5    1.125    0.502   -1.188   Cg   405      WcA   0.195000
  8522   H5    0.272    0.883   -1.752   H1   405      WcA   0.000000
  8523   O5    2.338    0.897   -1.902   Oh   405      WcA  -0.709000
  8524  H5O    2.197    0.868   -2.856   Ho   405      WcA   0.415000
  8525   C4    1.095    1.119    0.227   Cg   405      WcA   0.367000
  8526   H4    1.137    2.205    0.130   H1   405      WcA   0.000000
  8527   O4    2.272    0.714    0.970   Os   405      WcA  -0.520000
  8528   C3   -0.188    0.737    1.010   Cg   405      WcA   0.247000
  8529   H3   -0.060    1.017    2.058   H1   405      WcA   0.000000
  8530   O3   -1.282    1.560    0.487   Os   405      WcA  -0.443000
  8531   C2   -1.370   -0.338    0.477   Cg   406      WcB   0.244000
  8532   C1   -0.685   -0.999    1.716   Cg   406      WcB   0.297000
  8533  H11    0.398   -0.927    1.644   H1   406      WcB   0.000000
  8534  H12   -0.991   -0.488    2.630   H1   406      WcB   0.000000
  8535   O1   -1.024   -2.401    1.832   Oh   406      WcB  -0.669000
  8536  H1O   -0.570   -2.779    2.590   Ho   406      WcB   0.401000
  8537   C3   -1.024    1.185    0.328   Cg   406      WcB   0.317000
  8538   H3   -1.106    1.671    1.301   H1   406      WcB   0.000000
  8539   C4    0.387    1.435   -0.264   Cg   406      WcB   0.344000
  8540   H4    0.485    2.488   -0.533   H1   406      WcB   0.000000
  8541   C5    0.647    0.575   -1.527   Cg   406      WcB   0.195000
  8542   H5   -0.017    0.922   -2.320   H1   406      WcB   0.000000
  8543   C6    0.350   -0.915   -1.282   Cg   406      WcB   0.365000
  8544  H6A    1.054   -1.335   -0.563   H1   406      WcB   0.000000
  8545  H6E    0.444   -1.473   -2.213   H1   406      WcB   0.000000
  8546   O6   -1.032   -1.064   -0.767   Os   406      WcB  -0.460000
  8547   O5    2.016    0.747   -1.995   Oh   406      WcB  -0.684000
  8548  H5O    2.614    0.716   -1.239   Ho   406      WcB   0.415000
  8549   O4    1.398    1.151    0.749   Os   406      WcB  -0.475000
  8550   O3   -1.974    1.830   -0.563   Os   406      WcB  -0.484000
  8551   C1   -0.540   -1.120   -1.153   Cg   407      WdA   0.398000
  8552   H1   -0.296   -1.459   -2.159   H2   407      WdA   0.000000
  8553   O5    0.419   -1.724   -0.216   Os   407      WdA  -0.487000
  8554   C5    0.437   -1.208    1.181   Cg   407      WdA   0.275000
  8555  H5A   -0.471   -1.546    1.687   H1   407      WdA   0.000000
  8556  H5E    1.289   -1.638    1.706   H1   407      WdA   0.000000
  8557   C4    0.514    0.333    1.219   Cg   407      WdA   0.351000
  8558   H4    1.493    0.663    0.867   H1   407      WdA   0.000000
  8559   O4    0.335    0.768    2.587   Os   407      WdA  -0.483000
  8560   C3   -0.604    0.946    0.347   Cg   407      WdA   0.184000
  8561   H3   -1.569    0.633    0.748   H1   407      WdA   0.000000
  8562   C2   -0.510    0.439   -1.114   Cg   407      WdA   0.246000
  8563   H2   -1.352    0.831   -1.686   H1   407      WdA   0.000000
  8564   O2    0.718    0.918   -1.737   Oh   407      WdA  -0.678000
  8565  H2O    0.704    0.757   -2.685   Ho   407      WdA   0.432000
  8566   O3   -0.568    2.404    0.407   Os   407      WdA  -0.432000
  8567   C1    1.252   -0.944    0.661   Cg   408      WdB   0.448000
  8568   H1    1.578   -1.491   -0.225   H2   408      WdB   0.000000
  8569   C2    1.198    0.565    0.345   Cg   408      WdB   0.226000
  8570   H2    2.181    0.921    0.032   H1   408      WdB   0.000000
  8571   O2    0.794    1.275    1.538   Oh   408      WdB  -0.645000
  8572  H2O    1.425    1.105    2.241   Ho   408      WdB   0.415000
  8573   C3    0.163    0.811   -0.773   Cg   408      WdB   0.201000
  8574   H3    0.532    0.338   -1.686   H1   408      WdB   0.000000
  8575   C4   -1.224    0.229   -0.429   Cg   408      WdB   0.335000
  8576   H4   -1.690    0.808    0.370   H1   408      WdB   0.000000
  8577   C5   -1.136   -1.248   -0.008   Cg   408      WdB   0.275000
  8578  H5A   -0.878   -1.876   -0.864   H1   408      WdB   0.000000
  8579  H5E   -2.096   -1.586    0.383   H1   408      WdB   0.000000
  8580   O5   -0.100   -1.419    1.035   Os   408      WdB  -0.519000
  8581   O4   -2.052    0.286   -1.601   Os   408      WdB  -0.467000
  8582   O3    0.053    2.225   -1.018   Os   408      WdB  -0.463000
  8583   C1   -0.207   -1.649    0.928   Cg   409      WeA   0.480000
  8584   H1   -0.989   -2.214    1.437   H2   409      WeA   0.000000
  8585   O5   -0.800   -1.019   -0.275   Os   409      WeA  -0.587000
  8586   C5    0.005   -0.020   -1.022   Cg   409      WeA   0.374000
  8587   H5    0.904   -0.508   -1.405   H1   409      WeA   0.000000
  8588   C6   -0.840    0.473   -2.205   Cg   409      WeA   0.259000
  8589  H61   -1.796    0.870   -1.857   H1   409      WeA   0.000000
  8590  H62   -0.317    1.260   -2.748   H1   409      WeA   0.000000
  8591   O6   -1.076   -0.624   -3.097   Oh   409      WeA  -0.663000
  8592  H6O   -0.236   -0.965   -3.414   Ho   409      WeA   0.406000
  8593   C4    0.412    1.092   -0.036   Cg   409      WeA   0.261000
  8594   H4   -0.490    1.609    0.293   H1   409      WeA   0.000000
  8595   O4    1.251    2.054   -0.701   Os   409      WeA  -0.500000
  8596   C3    1.143    0.556    1.214   Cg   409      WeA   0.328000
  8597   H3    1.312    1.369    1.922   H1   409      WeA   0.000000
  8598   C2    0.357   -0.582    1.893   Cg   409      WeA   0.179000
  8599   H2    0.975   -1.059    2.656   H1   409      WeA   0.000000
  8600   O2   -0.768    0.013    2.560   Oh   409      WeA  -0.690000
  8601  H2O   -1.267   -0.668    3.017   Ho   409      WeA   0.447000
  8602   O3    2.426    0.014    0.841   Os   409      WeA  -0.488000
  8603   C1   -1.285   -0.183    1.360   Cg   410      WeB   0.488000
  8604   H1   -0.730   -0.583    2.208   H2   410      WeB   0.000000
  8605   C2   -0.973    1.333    1.165   Cg   410      WeB   0.184000
  8606   H2   -1.161    1.866    2.098   H1   410      WeB   0.000000
  8607   O2   -1.792    1.945    0.118   Oh   410      WeB  -0.697000
  8608  H2O   -2.721    1.784    0.326   Ho   410      WeB   0.432000
  8609   C3    0.504    1.491    0.760   Cg   410      WeB   0.315000
  8610   H3    0.715    2.541    0.556   H1   410      WeB   0.000000
  8611   C4    0.835    0.649   -0.504   Cg   410      WeB   0.320000
  8612   H4    0.252    1.032   -1.342   H1   410      WeB   0.000000
  8613   C5    0.474   -0.843   -0.293   Cg   410      WeB   0.257000
  8614   H5    1.116   -1.260    0.486   H1   410      WeB   0.000000
  8615   C6    0.665   -1.671   -1.579   Cg   410      WeB   0.278000
  8616  H61    1.703   -1.632   -1.910   H1   410      WeB   0.000000
  8617  H62    0.036   -1.275   -2.377   H1   410      WeB   0.000000
  8618   O6    0.306   -3.043   -1.338   Oh   410      WeB  -0.677000
  8619  H6O   -0.566   -3.056   -0.930   Ho   410      WeB   0.408000
  8620   O5   -0.952   -0.960    0.159   Os   410      WeB  -0.532000
  8621   O4    2.244    0.791   -0.845   Os   410      WeB  -0.498000
  8622   O3    1.329    1.075    1.882   Os   410      WeB  -0.472000
  8623   C1   -0.571   -0.958   -1.502   Cg   411      WfA   0.399000
  8624   H1   -0.247   -1.364   -2.460   H2   411      WfA   0.000000
  8625   O5    0.333   -1.457   -0.454   Os   411      WfA  -0.494000
  8626   C5    0.166   -0.879    0.915   Cg   411      WfA   0.187000
  8627   H5   -0.800   -1.210    1.297   H1   411      WfA   0.000000
  8628   C6    1.241   -1.490    1.818   Cg   411      WfA   0.065000
  8629  H61    2.248   -1.262    1.467   Hc   411      WfA   0.000000
  8630  H62    1.149   -2.576    1.859   Hc   411      WfA   0.000000
  8631  H63    1.155   -1.120    2.840   Hc   411      WfA   0.000000
  8632   C4    0.138    0.675    0.881   Cg   411      WfA   0.263000
  8633   H4   -0.159    1.041    1.865   H1   411      WfA   0.000000
  8634   O4    1.460    1.198    0.587   Os   411      WfA  -0.486000
  8635   C3   -0.865    1.200   -0.176   Cg   411      WfA   0.228000
  8636   H3   -1.869    0.888    0.113   H1   411      WfA   0.000000
  8637   C2   -0.526    0.606   -1.567   Cg   411      WfA   0.456000
  8638   H2    0.489    0.897   -1.840   H1   411      WfA   0.000000
  8639   O2   -1.412    1.142   -2.601   Oh   411      WfA  -0.804000
  8640  H2O   -1.086    2.006   -2.865   Ho   411      WfA   0.453000
  8641   O3   -0.843    2.664   -0.177   Os   411      WfA  -0.461000
  8642   C1   -1.082   -1.238    0.800   Cg   412      WfB   0.418000
  8643   H1   -0.486   -2.148    0.720   H2   412      WfB   0.000000
  8644   C2   -0.400   -0.233    1.755   Cg   412      WfB   0.346000
  8645   H2   -1.101    0.558    2.030   H1   412      WfB   0.000000
  8646   O2   -0.007   -0.954    2.937   Oh   412      WfB  -0.765000
  8647  H2O   -0.783   -1.346    3.344   Ho   412      WfB   0.440000
  8648   C3    0.870    0.382    1.133   Cg   412      WfB   0.255000
  8649   H3    1.640   -0.389    1.061   H1   412      WfB   0.000000
  8650   C4    0.632    0.946   -0.282   Cg   412      WfB   0.229000
  8651   H4    1.575    1.292   -0.708   H1   412      WfB   0.000000
  8652   C5    0.022   -0.150   -1.181   Cg   412      WfB   0.106000
  8653   H5    0.732   -0.978   -1.240   H1   412      WfB   0.000000
  8654   C6   -0.307    0.275   -2.614   Cg   412      WfB   0.092000
  8655  H61   -0.686   -0.566   -3.197   Hc   412      WfB   0.000000
  8656  H62   -1.063    1.060   -2.646   Hc   412      WfB   0.000000
  8657  H63    0.580    0.651   -3.128   Hc   412      WfB   0.000000
  8658   O5   -1.221   -0.648   -0.550   Os   412      WfB  -0.442000
  8659   O4   -0.289    2.057   -0.217   Os   412      WfB  -0.430000
  8660   O3    1.372    1.430    1.984   Os   412      WfB  -0.443000
  8661   C1   -0.683   -0.383    1.745   Cg   413      WgA   0.509000
  8662   H1   -1.560   -0.544    2.373   H2   413      WgA   0.000000
  8663   O5   -0.913   -1.006    0.443   Os   413      WgA  -0.574000
  8664   C5    0.107   -0.779   -0.633   Cg   413      WgA   0.283000
  8665   H5    1.050   -1.227   -0.313   H1   413      WgA   0.000000
  8666   C6   -0.348   -1.476   -1.936   Cg   413      WgA   0.276000
  8667  H61   -1.385   -1.218   -2.155   H1   413      WgA   0.000000
  8668  H62    0.264   -1.153   -2.779   H1   413      WgA   0.000000
  8669   O6   -0.228   -2.910   -1.820   Oh   413      WgA  -0.682000
  8670  H6O    0.689   -3.169   -1.936   Ho   413      WgA   0.418000
  8671   C4    0.331    0.736   -0.820   Cg   413      WgA   0.254000
  8672   H4   -0.568    1.184   -1.249   H1   413      WgA   0.000000
  8673   O4    1.438    0.941   -1.736   Os   413      WgA  -0.468000
  8674   C3    0.658    1.425    0.526   Cg   413      WgA   0.286000
  8675   H3    1.628    1.080    0.888   H1   413      WgA   0.000000
  8676   C2   -0.415    1.143    1.598   Cg   413      WgA   0.246000
  8677   H2   -1.348    1.613    1.284   H1   413      WgA   0.000000
  8678   O2   -0.020    1.744    2.875   Oh   413      WgA  -0.713000
  8679  H2O    0.577    1.141    3.339   Ho   413      WgA   0.437000
  8680   O3    0.726    2.859    0.308   Os   413      WgA  -0.466000
  8681   C1   -1.272   -0.122    1.290   Cg   414      WgB   0.384000
  8682   H1   -0.698   -0.522    2.127   H2   414      WgB   0.000000
  8683   C2   -0.922    1.370    1.035   Cg   414      WgB   0.310000
  8684   H2   -1.620    1.785    0.304   H1   414      WgB   0.000000
  8685   O2   -1.035    2.130    2.274   Oh   414      WgB  -0.718000
  8686  H2O   -1.920    1.984    2.635   Ho   414      WgB   0.437000
  8687   C3    0.521    1.500    0.497   Cg   414      WgB   0.284000
  8688   H3    1.222    1.239    1.292   H1   414      WgB   0.000000
  8689   C4    0.773    0.580   -0.723   Cg   414      WgB   0.276000
  8690   H4    0.179    0.930   -1.569   H1   414      WgB   0.000000
  8691   C5    0.400   -0.884   -0.407   Cg   414      WgB   0.225000
  8692   H5    1.057   -1.258    0.381   H1   414      WgB   0.000000
  8693   C6    0.532   -1.804   -1.636   Cg   414      WgB   0.282000
  8694  H61    1.562   -1.823   -1.992   H1   414      WgB   0.000000
  8695  H62   -0.105   -1.446   -2.446   H1   414      WgB   0.000000
  8696   O6    0.136   -3.144   -1.287   Oh   414      WgB  -0.688000
  8697  H6O   -0.740   -3.106   -0.891   Ho   414      WgB   0.424000
  8698   O5   -1.007   -0.928    0.094   Os   414      WgB  -0.471000
  8699   O4    2.175    0.640   -1.080   Os   414      WgB  -0.468000
  8700   O3    0.763    2.878    0.102   Os   414      WgB  -0.471000
  8701   C1   -0.511   -0.994   -1.603   Cg   415      WhA   0.394000
  8702   H1   -0.076   -1.369   -2.529   H2   415      WhA   0.000000
  8703   O5    0.327   -1.440   -0.477   Os   415      WhA  -0.461000
  8704   C5    0.047   -0.872    0.867   Cg   415      WhA   0.279000
  8705   H5   -0.926   -1.241    1.195   H1   415      WhA   0.000000
  8706   C6    1.116   -1.426    1.811   Cg   415      WhA   0.023000
  8707  H61    2.116   -1.097    1.524   Hc   415      WhA   0.000000
  8708  H62    1.118   -2.517    1.812   Hc   415      WhA   0.000000
  8709  H63    0.947   -1.105    2.839   Hc   415      WhA   0.000000
  8710   C4    0.003    0.675    0.809   Cg   415      WhA   0.187000
  8711   H4    1.002    1.066    0.608   H1   415      WhA   0.000000
  8712   O4   -0.454    1.196    2.090   Os   415      WhA  -0.433000
  8713   C3   -0.971    1.144   -0.294   Cg   415      WhA   0.236000
  8714   H3   -1.982    0.824   -0.031   H1   415      WhA   0.000000
  8715   C2   -0.620    0.554   -1.678   Cg   415      WhA   0.248000
  8716   H2   -1.393    0.832   -2.396   H1   415      WhA   0.000000
  8717   O2    0.644    1.109   -2.142   Oh   415      WhA  -0.670000
  8718  H2O    0.583    2.067   -2.039   Ho   415      WhA   0.421000
  8719   O3   -0.970    2.594   -0.364   Os   415      WhA  -0.418000
  8720   C1   -1.946    0.115   -0.242   Cg   416      WhB   0.381000
  8721   H1   -2.059    1.139   -0.600   H2   416      WhB   0.000000
  8722   C2   -1.190   -0.722   -1.294   Cg   416      WhB   0.243000
  8723   H2   -1.738   -0.724   -2.238   H1   416      WhB   0.000000
  8724   O2   -1.066   -2.079   -0.813   Oh   416      WhB  -0.673000
  8725  H2O   -0.579   -2.602   -1.454   Ho   416      WhB   0.432000
  8726   C3    0.215   -0.121   -1.497   Cg   416      WhB   0.182000
  8727   H3    0.098    0.871   -1.940   H1   416      WhB   0.000000
  8728   C4    1.003    0.007   -0.177   Cg   416      WhB   0.388000
  8729   H4    1.299   -0.982    0.178   H1   416      WhB   0.000000
  8730   C5    0.190    0.734    0.920   Cg   416      WhB   0.172000
  8731   H5    0.076    1.785    0.647   H1   416      WhB   0.000000
  8732  C6M    0.811    0.659    2.316   Cg   416      WhB   0.039000
  8733  H3M    1.796    1.128    2.340   Hc   416      WhB   0.000000
  8734  H2M    0.930   -0.373    2.650   Hc   416      WhB   0.000000
  8735  H1M    0.193    1.173    3.053   Hc   416      WhB   0.000000
  8736   O5   -1.165    0.139    1.014   Os   416      WhB  -0.427000
  8737   O4    2.182    0.790   -0.435   Os   416      WhB  -0.490000
  8738   O3    0.950   -0.938   -2.427   Os   416      WhB  -0.441000
  8739   C2   -0.490   -0.802    0.930   Cg   417      WjA   0.114000
  8740   C1   -1.866   -1.155    1.580   Cg   417      WjA   0.410000
  8741  H11   -1.975   -2.236    1.676   H1   417      WjA   0.000000
  8742  H12   -1.925   -0.721    2.579   H1   417      WjA   0.000000
  8743   O1   -2.958   -0.651    0.794   Oh   417      WjA  -0.656000
  8744  H1O   -2.628    0.163    0.382   Ho   417      WjA   0.405000
  8745   O6   -0.389   -1.395   -0.424   Os   417      WjA  -0.504000
  8746   C6    0.812   -1.086   -1.249   Cg   417      WjA   0.368000
  8747  H6A    1.671   -1.602   -0.819   H1   417      WjA   0.000000
  8748  H6E    0.658   -1.475   -2.256   H1   417      WjA   0.000000
  8749   C5    1.081    0.430   -1.304   Cg   417      WjA   0.273000
  8750   H5    0.300    0.915   -1.891   H1   417      WjA   0.000000
  8751   O5    2.360    0.651   -1.958   Oh   417      WjA  -0.699000
  8752  H5O    2.539    1.600   -1.954   Ho   417      WjA   0.419000
  8753   C4    1.117    1.027    0.123   Cg   417      WjA   0.281000
  8754   H4    1.953    0.587    0.669   H1   417      WjA   0.000000
  8755   O4    1.334    2.470    0.067   Os   417      WjA  -0.453000
  8756   C3   -0.196    0.731    0.893   Cg   417      WjA   0.271000
  8757   H3   -0.103    1.109    1.912   H1   417      WjA   0.000000
  8758   O3   -1.294    1.440    0.247   Os   417      WjA  -0.423000
  8759   C2   -1.279   -0.491    0.553   Cg   418      WjB   0.413000
  8760   C1   -0.452   -1.003    1.779   Cg   418      WjB   0.280000
  8761  H11    0.559   -0.600    1.751   H1   418      WjB   0.000000
  8762  H12   -0.913   -0.658    2.706   H1   418      WjB   0.000000
  8763   O1   -0.346   -2.443    1.822   Oh   418      WjB  -0.722000
  8764  H1O   -1.209   -2.807    1.590   Ho   418      WjB   0.432000
  8765   C3   -1.145    1.060    0.363   Cg   418      WjB   0.363000
  8766   H3   -1.332    1.566    1.312   H1   418      WjB   0.000000
  8767   C4    0.271    1.428   -0.151   Cg   418      WjB   0.155000
  8768   H4    0.994    1.176    0.624   H1   418      WjB   0.000000
  8769   C5    0.641    0.648   -1.438   Cg   418      WjB   0.374000
  8770   H5    0.024    0.997   -2.267   H1   418      WjB   0.000000
  8771   C6    0.438   -0.876   -1.267   Cg   418      WjB   0.292000
  8772  H6A    1.196   -1.282   -0.595   H1   418      WjB   0.000000
  8773  H6E    0.542   -1.376   -2.230   H1   418      WjB   0.000000
  8774   O6   -0.904   -1.176   -0.709   Os   418      WjB  -0.551000
  8775   O5    2.037    0.914   -1.750   Oh   418      WjB  -0.729000
  8776  H5O    2.621    0.502   -1.106   Ho   418      WjB   0.426000
  8777   O4    0.363    2.867   -0.369   Os   418      WjB  -0.440000
  8778   O3   -2.107    1.555   -0.619   Os   418      WjB  -0.487000
  8779   C1   -0.464   -1.568    0.932   Cg   419      WkA   0.473000
  8780   H1   -1.255   -2.102    1.460   H2   419      WkA   0.000000
  8781   O5   -1.065   -0.868   -0.226   Os   419      WkA  -0.540000
  8782   C5   -0.189    0.055   -0.999   Cg   419      WkA   0.301000
  8783   H5    0.642   -0.527   -1.403   H1   419      WkA   0.000000
  8784   C6   -0.984    0.616   -2.186   Cg   419      WkA   0.287000
  8785  H61   -1.898    1.104   -1.846   H1   419      WkA   0.000000
  8786  H62   -0.384    1.344   -2.731   H1   419      WkA   0.000000
  8787   O6   -1.322   -0.462   -3.069   Oh   419      WkA  -0.691000
  8788  H6O   -0.519   -0.886   -3.380   Ho   419      WkA   0.422000
  8789   C4    0.413    1.125   -0.054   Cg   419      WkA   0.196000
  8790   H4    1.142    1.723   -0.603   H1   419      WkA   0.000000
  8791   O4   -0.633    2.005    0.396   Os   419      WkA  -0.486000
  8792   C3    1.075    0.519    1.199   Cg   419      WkA   0.354000
  8793   H3    1.331    1.309    1.907   H1   419      WkA   0.000000
  8794   C2    0.148   -0.512    1.877   Cg   419      WkA   0.281000
  8795   H2   -0.690    0.047    2.296   H1   419      WkA   0.000000
  8796   O2    0.810   -1.143    2.988   Oh   419      WkA  -0.716000
  8797  H2O    1.547   -1.666    2.665   Ho   419      WkA   0.427000
  8798   O3    2.296   -0.114    0.773   Os   419      WkA  -0.502000
  8799   C1   -1.248   -0.235    1.290   Cg   420      WkB   0.449000
  8800   H1   -0.666   -0.667    2.106   H2   420      WkB   0.000000
  8801   C2   -0.943    1.282    1.121   Cg   420      WkB   0.308000
  8802   H2   -1.634    1.701    0.387   H1   420      WkB   0.000000
  8803   O2   -1.121    2.014    2.373   Oh   420      WkB  -0.710000
  8804  H2O   -2.020    1.858    2.687   Ho   420      WkB   0.426000
  8805   C3    0.501    1.489    0.607   Cg   420      WkB   0.253000
  8806   H3    0.663    2.549    0.406   H1   420      WkB   0.000000
  8807   C4    0.781    0.675   -0.676   Cg   420      WkB   0.217000
  8808   H4    1.840    0.751   -0.930   H1   420      WkB   0.000000
  8809   C5    0.419   -0.823   -0.479   Cg   420      WkB   0.303000
  8810   H5    1.105   -1.237    0.262   H1   420      WkB   0.000000
  8811   C6    0.567   -1.654   -1.769   Cg   420      WkB   0.259000
  8812  H61    1.566   -1.525   -2.185   H1   420      WkB   0.000000
  8813  H62   -0.159   -1.332   -2.516   H1   420      WkB   0.000000
  8814   O6    0.359   -3.051   -1.486   Oh   420      WkB  -0.670000
  8815  H6O   -0.515   -3.154   -1.097   Ho   420      WkB   0.416000
  8816   O5   -0.975   -0.970    0.052   Os   420      WkB  -0.514000
  8817   O4    0.022    1.254   -1.773   Os   420      WkB  -0.469000
  8818   O3    1.458    1.075    1.618   Os   420      WkB  -0.462000
  8819   C1   -0.534   -1.544    0.927   Cg   421      WlA   0.465000
  8820   H1   -1.348   -2.059    1.436   H2   421      WlA   0.000000
  8821   O5   -1.087   -0.835   -0.252   Os   421      WlA  -0.527000
  8822   C5   -0.158    0.055   -1.004   Cg   421      WlA   0.216000
  8823   H5    0.678   -0.548   -1.365   H1   421      WlA   0.000000
  8824   C6   -0.893    0.615   -2.230   Cg   421      WlA   0.308000
  8825  H61   -1.810    1.127   -1.934   H1   421      WlA   0.000000
  8826  H62   -0.256    1.324   -2.759   H1   421      WlA   0.000000
  8827   O6   -1.217   -0.468   -3.112   Oh   421      WlA  -0.684000
  8828  H6O   -0.410   -0.912   -3.383   Ho   421      WlA   0.418000
  8829   C4    0.416    1.120   -0.045   Cg   421      WlA   0.204000
  8830   H4    1.156    1.726   -0.570   H1   421      WlA   0.000000
  8831   O4   -0.666    1.976    0.384   Os   421      WlA  -0.431000
  8832   C3    1.068    0.446    1.181   Cg   421      WlA   0.253000
  8833   H3    1.939   -0.117    0.845   H1   421      WlA   0.000000
  8834   C2    0.090   -0.509    1.893   Cg   421      WlA   0.339000
  8835   H2   -0.721    0.074    2.332   H1   421      WlA   0.000000
  8836   O2    0.765   -1.199    2.962   Oh   421      WlA  -0.724000
  8837  H2O    1.471   -1.738    2.598   Ho   421      WlA   0.431000
  8838   O3    1.517    1.464    2.096   Os   421      WlA  -0.462000
  8839   C1   -1.266   -0.145    1.298   Cg   422      WlB   0.374000
  8840   H1   -0.694   -0.543    2.137   H2   422      WlB   0.000000
  8841   C2   -0.915    1.355    1.062   Cg   422      WlB   0.357000
  8842   H2   -1.616    1.787    0.346   H1   422      WlB   0.000000
  8843   O2   -1.013    2.090    2.319   Oh   422      WlB  -0.726000
  8844  H2O   -1.897    1.942    2.677   Ho   422      WlB   0.432000
  8845   C3    0.529    1.485    0.523   Cg   422      WlB   0.259000
  8846   H3    1.224    1.162    1.301   H1   422      WlB   0.000000
  8847   C4    0.768    0.609   -0.728   Cg   422      WlB   0.203000
  8848   H4    1.818    0.673   -1.018   H1   422      WlB   0.000000
  8849   C5    0.409   -0.865   -0.433   Cg   422      WlB   0.140000
  8850   H5    1.095   -1.225    0.337   H1   422      WlB   0.000000
  8851   C6    0.552   -1.780   -1.662   Cg   422      WlB   0.319000
  8852  H61    1.549   -1.684   -2.092   H1   422      WlB   0.000000
  8853  H62   -0.181   -1.521   -2.427   H1   422      WlB   0.000000
  8854   O6    0.349   -3.144   -1.257   Oh   422      WlB  -0.693000
  8855  H6O   -0.526   -3.206   -0.864   Ho   422      WlB   0.419000
  8856   O5   -0.982   -0.957    0.107   Os   422      WlB  -0.402000
  8857   O4   -0.041    1.096   -1.826   Os   422      WlB  -0.421000
  8858   O3    0.837    2.870    0.200   Os   422      WlB  -0.455000
  8859   C1   -0.713   -0.505    1.822   Cg   423      WmA   0.433000
  8860   H1   -1.647   -0.685    2.356   H2   423      WmA   0.000000
  8861   O5   -0.796   -1.141    0.499   Os   423      WmA  -0.507000
  8862   C5    0.279   -0.846   -0.501   Cg   423      WmA   0.276000
  8863   H5    1.208   -1.291   -0.140   H1   423      WmA   0.000000
  8864   C6   -0.085   -1.498   -1.852   Cg   423      WmA   0.266000
  8865  H61   -1.104   -1.230   -2.135   H1   423      WmA   0.000000
  8866  H62    0.584   -1.148   -2.639   H1   423      WmA   0.000000
  8867   O6    0.025   -2.936   -1.778   Oh   423      WmA  -0.688000
  8868  H6O    0.950   -3.192   -1.752   Ho   423      WmA   0.422000
  8869   C4    0.492    0.680   -0.629   Cg   423      WmA   0.326000
  8870   H4   -0.375    1.138   -1.107   H1   423      WmA   0.000000
  8871   O4    1.664    0.922   -1.450   Os   423      WmA  -0.489000
  8872   C3    0.721    1.317    0.765   Cg   423      WmA   0.252000
  8873   H3    1.632    0.897    1.196   H1   423      WmA   0.000000
  8874   C2   -0.455    1.025    1.724   Cg   423      WmA   0.245000
  8875   H2   -0.216    1.416    2.714   H1   423      WmA   0.000000
  8876   O2   -1.656    1.705    1.251   Oh   423      WmA  -0.717000
  8877  H2O   -1.423    2.609    1.007   Ho   423      WmA   0.446000
  8878   O3    0.913    2.761    0.651   Os   423      WmA  -0.459000
  8879   C1   -1.207   -0.161    1.457   Cg   424      WmB   0.314000
  8880   H1   -0.573   -0.462    2.293   H2   424      WmB   0.000000
  8881   C2   -0.983    1.341    1.129   Cg   424      WmB   0.241000
  8882   H2   -1.202    1.949    2.009   H1   424      WmB   0.000000
  8883   O2   -1.864    1.746    0.039   Oh   424      WmB  -0.664000
  8884  H2O   -2.766    1.532    0.301   Ho   424      WmB   0.431000
  8885   C3    0.502    1.507    0.726   Cg   424      WmB   0.263000
  8886   H3    1.117    1.158    1.558   H1   424      WmB   0.000000
  8887   C4    0.828    0.647   -0.525   Cg   424      WmB   0.349000
  8888   H4    0.252    1.002   -1.382   H1   424      WmB   0.000000
  8889   C5    0.503   -0.844   -0.256   Cg   424      WmB   0.206000
  8890   H5    1.202   -1.225    0.492   H1   424      WmB   0.000000
  8891   C6    0.633   -1.698   -1.530   Cg   424      WmB   0.273000
  8892  H61    1.646   -1.641   -1.928   H1   424      WmB   0.000000
  8893  H62   -0.058   -1.342   -2.295   H1   424      WmB   0.000000
  8894   O6    0.330   -3.073   -1.229   Oh   424      WmB  -0.680000
  8895  H6O   -0.546   -3.112   -0.835   Ho   424      WmB   0.419000
  8896   O5   -0.882   -0.998    0.293   Os   424      WmB  -0.393000
  8897   O4    2.241    0.758   -0.839   Os   424      WmB  -0.497000
  8898   O3    0.827    2.913    0.522   Os   424      WmB  -0.456000
  8899   C1   -0.394   -1.629    0.884   Cg   425      WnA   0.478000
  8900   H1   -1.184   -2.212    1.357   H2   425      WnA   0.000000
  8901   O5   -0.954   -0.967   -0.315   Os   425      WnA  -0.611000
  8902   C5   -0.127    0.053   -1.017   Cg   425      WnA   0.404000
  8903   H5    0.761   -0.436   -1.421   H1   425      WnA   0.000000
  8904   C6   -0.963    0.613   -2.176   Cg   425      WnA   0.280000
  8905  H61   -1.906    1.020   -1.809   H1   425      WnA   0.000000
  8906  H62   -0.421    1.408   -2.689   H1   425      WnA   0.000000
  8907   O6   -1.229   -0.440   -3.111   Oh   425      WnA  -0.663000
  8908  H6O   -0.400   -0.788   -3.447   Ho   425      WnA   0.396000
  8909   C4    0.310    1.123    0.009   Cg   425      WnA   0.167000
  8910   H4   -0.577    1.668    0.337   H1   425      WnA   0.000000
  8911   O4    1.195    2.066   -0.622   Os   425      WnA  -0.483000
  8912   C3    1.000    0.537    1.259   Cg   425      WnA   0.330000
  8913   H3    1.185    1.327    1.988   H1   425      WnA   0.000000
  8914   C2    0.080   -0.537    1.870   Cg   425      WnA   0.228000
  8915   H2   -0.817   -0.023    2.220   H1   425      WnA   0.000000
  8916   O2    0.691   -1.130    3.030   Oh   425      WnA  -0.668000
  8917  H2O    1.490   -1.593    2.767   Ho   425      WnA   0.415000
  8918   O3    2.262   -0.060    0.886   Os   425      WnA  -0.467000
  8919   C1   -1.250   -0.213    1.304   Cg   426      WnB   0.422000
  8920   H1   -0.668   -0.618    2.134   H2   426      WnB   0.000000
  8921   C2   -0.946    1.300    1.089   Cg   426      WnB   0.301000
  8922   H2   -1.647    1.700    0.352   H1   426      WnB   0.000000
  8923   O2   -1.107    2.063    2.321   Oh   426      WnB  -0.703000
  8924  H2O   -2.013    1.946    2.635   Ho   426      WnB   0.424000
  8925   C3    0.487    1.502    0.552   Cg   426      WnB   0.234000
  8926   H3    0.646    2.559    0.329   H1   426      WnB   0.000000
  8927   C4    0.692    0.663   -0.731   Cg   426      WnB   0.286000
  8928   H4   -0.005    1.014   -1.494   H1   426      WnB   0.000000
  8929   C5    0.423   -0.838   -0.470   Cg   426      WnB   0.198000
  8930   H5    1.133   -1.207    0.272   H1   426      WnB   0.000000
  8931   C6    0.562   -1.698   -1.741   Cg   426      WnB   0.313000
  8932  H61    1.576   -1.637   -2.138   H1   426      WnB   0.000000
  8933  H62   -0.132   -1.356   -2.508   H1   426      WnB   0.000000
  8934   O6    0.269   -3.069   -1.418   Oh   426      WnB  -0.689000
  8935  H6O   -0.546   -3.081   -0.908   Ho   426      WnB   0.418000
  8936   O5   -0.963   -0.985    0.086   Os   426      WnB  -0.507000
  8937   O4    2.035    0.862   -1.232   Os   426      WnB  -0.471000
  8938   O3    1.452    1.093    1.566   Os   426      WnB  -0.420000
  8939   C1   -0.608   -0.691    1.577   Cg   427      WoA   0.305000
  8940   H1   -1.492   -0.870    2.189   H2   427      WoA   0.000000
  8941   O5   -0.783   -1.381    0.290   Os   427      WoA  -0.424000
  8942   C5    0.192   -1.067   -0.827   Cg   427      WoA   0.054000
  8943   H5    1.178   -1.421   -0.519   H1   427      WoA   0.000000
  8944   C6   -0.119   -1.689   -2.230    C   427      WoA   0.896000
  8945  O6B   -1.280   -1.535   -2.683   O2   427      WoA  -0.822000
  8946  O6A    0.844   -2.209   -2.838   O2   427      WoA  -0.822000
  8947   C4    0.253    0.459   -1.027   Cg   427      WoA   0.267000
  8948   H4    0.994    0.697   -1.792   H1   427      WoA   0.000000
  8949   O4   -1.057    0.894   -1.489   Os   427      WoA  -0.469000
  8950   C3    0.646    1.147    0.306   Cg   427      WoA   0.251000
  8951   H3    1.600    0.729    0.633   H1   427      WoA   0.000000
  8952   C2   -0.412    0.849    1.396   Cg   427      WoA   0.413000
  8953   H2   -1.364    1.296    1.107   H1   427      WoA   0.000000
  8954   O2   -0.003    1.437    2.673   Oh   427      WoA  -0.771000
  8955  H2O    0.555    0.773    3.098   Ho   427      WoA   0.431000
  8956   O3    0.854    2.582    0.135   Os   427      WoA  -0.503000
  8957   C1   -1.282   -0.474    1.187   Cg   428      WoB   0.301000
  8958   H1   -0.698   -0.855    2.026   H2   428      WoB   0.000000
  8959   C2   -0.973    1.036    0.952   Cg   428      WoB   0.383000
  8960   H2   -1.717    1.462    0.278   H1   428      WoB   0.000000
  8961   O2   -1.064    1.710    2.244   Oh   428      WoB  -0.732000
  8962  H2O   -1.933    1.499    2.601   Ho   428      WoB   0.401000
  8963   C3    0.444    1.225    0.345   Cg   428      WoB   0.259000
  8964   H3    1.180    0.932    1.097   H1   428      WoB   0.000000
  8965   C4    0.655    0.338   -0.906   Cg   428      WoB   0.260000
  8966   H4    1.683    0.465   -1.250   H1   428      WoB   0.000000
  8967   C5    0.394   -1.142   -0.577   Cg   428      WoB   0.049000
  8968   H5    1.093   -1.425    0.212   H1   428      WoB   0.000000
  8969   C6    0.789   -2.051   -1.800    C   428      WoB   0.838000
  8970  O6A    0.018   -2.981   -2.133   O2   428      WoB  -0.794000
  8971  O6B    1.922   -1.844   -2.302   O2   428      WoB  -0.794000
  8972   O5   -0.988   -1.284    0.006   Os   428      WoB  -0.414000
  8973   O4   -0.241    0.769   -1.960   Os   428      WoB  -0.453000
  8974   O3    0.717    2.619   -0.018   Os   428      WoB  -0.498000
  8975   C2   -0.461   -1.225    0.179   Cg   429      WpA   0.417000
  8976   C1   -1.763   -1.862    0.701   Cg   429      WpA   0.327000
  8977  H11   -2.128   -2.613   -0.001   H1   429      WpA   0.000000
  8978  H12   -1.593   -2.351    1.662   H1   429      WpA   0.000000
  8979   O1   -2.775   -0.857    0.866   Oh   429      WpA  -0.644000
  8980  H1O   -2.473   -0.200    1.497   Ho   429      WpA   0.393000
  8981   O6   -0.759   -0.595   -1.136   Os   429      WpA  -0.598000
  8982   C6    0.318    0.165   -1.812   Cg   429      WpA   0.393000
  8983  H6A    1.114   -0.522   -2.105   H1   429      WpA   0.000000
  8984  H6E   -0.083    0.626   -2.715   H1   429      WpA   0.000000
  8985   C5    0.853    1.239   -0.854   Cg   429      WpA   0.153000
  8986   H5    0.054    1.959   -0.666   H1   429      WpA   0.000000
  8987   O5    1.932    1.939   -1.494   Oh   429      WpA  -0.693000
  8988  H5O    2.257    2.630   -0.912   Ho   429      WpA   0.428000
  8989   C4    1.321    0.668    0.498   Cg   429      WpA   0.394000
  8990   H4    1.605    1.480    1.169   H1   429      WpA   0.000000
  8991   O4    2.465   -0.191    0.294   Os   429      WpA  -0.464000
  8992   C3    0.164   -0.146    1.114   Cg   429      WpA   0.150000
  8993   H3   -0.623    0.574    1.345   H1   429      WpA   0.000000
  8994   O3    0.574   -0.718    2.371   Os   429      WpA  -0.450000
  8995   C2   -1.341   -0.379    0.473   Cg   430      WpB   0.407000
  8996   C1   -0.665   -1.044    1.727   Cg   430      WpB   0.379000
  8997  H11    0.415   -0.921    1.685   H1   430      WpB   0.000000
  8998  H12   -1.016   -0.562    2.640   H1   430      WpB   0.000000
  8999   O1   -0.941   -2.466    1.824   Oh   430      WpB  -0.720000
  9000  H1O   -0.493   -2.827    2.595   Ho   430      WpB   0.410000
  9001   C3   -1.054    1.146    0.295   Cg   430      WpB   0.180000
  9002   H3   -1.777    1.542   -0.422   H1   430      WpB   0.000000
  9003   C4    0.345    1.439   -0.300   Cg   430      WpB   0.328000
  9004   H4    0.410    2.499   -0.551   H1   430      WpB   0.000000
  9005   C5    0.610    0.601   -1.572   Cg   430      WpB   0.188000
  9006   H5   -0.085    0.921   -2.349   H1   430      WpB   0.000000
  9007   C6    0.376   -0.898   -1.309   Cg   430      WpB   0.364000
  9008  H6A    1.101   -1.286   -0.592   H1   430      WpB   0.000000
  9009  H6E    0.480   -1.462   -2.236   H1   430      WpB   0.000000
  9010   O6   -0.996   -1.086   -0.779   Os   430      WpB  -0.540000
  9011   O5    1.959    0.831   -2.063   Oh   430      WpB  -0.705000
  9012  H5O    2.550    0.917   -1.302   Ho   430      WpB   0.433000
  9013   O4    1.361    1.146    0.696   Os   430      WpB  -0.465000
  9014   O3   -1.238    1.891    1.539   Os   430      WpB  -0.453000
  9015   C1   -0.459   -0.885   -1.545   Cg   431      WqA   0.465000
  9016   H1   -0.131   -1.273   -2.510   H1   431      WqA   0.000000
  9017   O5    0.488   -1.330   -0.516   Os   431      WqA  -0.559000
  9018   C5    0.287   -0.814    0.864   Cg   431      WqA   0.234000
  9019   H5   -0.661   -1.203    1.240   H1   431      WqA   0.000000
  9020   C6    1.416   -1.387    1.724   Cg   431      WqA   0.060000
  9021  H61    1.426   -2.478    1.689   Hc   431      WqA   0.000000
  9022  H62    1.306   -1.101    2.771   Hc   431      WqA   0.000000
  9023  H63    2.395   -1.039    1.389   Hc   431      WqA   0.000000
  9024   C4    0.226    0.731    0.850   Cg   431      WqA   0.208000
  9025   H4    1.217    1.125    0.614   H1   431      WqA   0.000000
  9026   O4   -0.159    1.200    2.173   Os   431      WqA  -0.455000
  9027   C3   -0.791    1.259   -0.194   Cg   431      WqA   0.312000
  9028   H3   -1.805    1.008    0.126   H1   431      WqA   0.000000
  9029   C2   -0.540    0.668   -1.604   Cg   431      WqA   0.281000
  9030   H2    0.421    1.037   -1.966   H1   431      WqA   0.000000
  9031   O2   -1.564    1.078   -2.567   Oh   431      WqA  -0.695000
  9032  H2O   -2.413    0.704   -2.309   Ho   431      WqA   0.422000
  9033   O3   -0.659    2.703   -0.229   Os   431      WqA  -0.467000
  9034   C1   -1.190   -0.413    1.312   Cg   432      WqB   0.391000
  9035   H1   -0.537   -0.829    2.081   H1   432      WqB   0.000000
  9036   C2   -0.929    1.106    1.114   Cg   432      WqB   0.323000
  9037   H2   -1.690    1.518    0.448   H1   432      WqB   0.000000
  9038   O2   -0.998    1.804    2.394   Oh   432      WqB  -0.713000
  9039  H2O   -1.845    1.589    2.806   Ho   432      WqB   0.420000
  9040   C3    0.471    1.322    0.494   Cg   432      WqB   0.300000
  9041   H3    1.229    1.056    1.233   H1   432      WqB   0.000000
  9042   C4    0.693    0.474   -0.783   Cg   432      WqB   0.250000
  9043   H4    0.053    0.852   -1.584   H1   432      WqB   0.000000
  9044   C5    0.369   -1.019   -0.534   Cg   432      WqB   0.271000
  9045   H5    1.089   -1.430    0.177   H1   432      WqB   0.000000
  9046   C6    0.387   -1.881   -1.797   Cg   432      WqB   0.048000
  9047  H61    0.127   -2.917   -1.573   Hc   432      WqB   0.000000
  9048  H62    1.374   -1.892   -2.261   Hc   432      WqB   0.000000
  9049  H63   -0.323   -1.519   -2.543   Hc   432      WqB   0.000000
  9050   O5   -0.989   -1.136    0.058   Os   432      WqB  -0.535000
  9051   O4    2.079    0.591   -1.197   Os   432      WqB  -0.486000
  9052   O3    0.630    2.727    0.156   Os   432      WqB  -0.463000
  9053   C1   -0.934   -1.400    0.138   Cg   433      WrA   0.488000
  9054   H1   -1.876   -1.807    0.505   H2   433      WrA   0.000000
  9055   O5   -1.183   -0.750   -1.171   Os   433      WrA  -0.561000
  9056   C5   -0.091    0.063   -1.758   Cg   433      WrA   0.377000
  9057  H5A    0.742   -0.592   -2.021   H1   433      WrA   0.000000
  9058  H5E   -0.451    0.538   -2.671   H1   433      WrA   0.000000
  9059   C4    0.353    1.126   -0.741   Cg   433      WrA   0.122000
  9060   H4   -0.473    1.822   -0.592   H1   433      WrA   0.000000
  9061   O4    1.456    1.864   -1.292   Os   433      WrA  -0.438000
  9062   C3    0.744    0.535    0.629   Cg   433      WrA   0.345000
  9063   H3    0.951    1.337    1.338   H1   433      WrA   0.000000
  9064   C2   -0.428   -0.331    1.135   Cg   433      WrA   0.253000
  9065   H2   -1.264    0.345    1.317   H1   433      WrA   0.000000
  9066   O2   -0.105   -0.931    2.403   Oh   433      WrA  -0.711000
  9067  H2O    0.633   -1.535    2.291   Ho   433      WrA   0.419000
  9068   O3    1.927   -0.283    0.489   Os   433      WrA  -0.488000
  9069   C1   -1.252   -0.716    0.786   Cg   434      WrB   0.481000
  9070   H1   -0.746   -1.114    1.665   H2   434      WrB   0.000000
  9071   C2   -0.882    0.782    0.535   Cg   434      WrB   0.385000
  9072   H2   -1.466    1.138   -0.316   H1   434      WrB   0.000000
  9073   O2   -1.200    1.651    1.662   Oh   434      WrB  -0.732000
  9074  H2O   -2.086    1.437    1.974   Ho   434      WrB   0.414000
  9075   C3    0.619    0.881    0.161   Cg   434      WrB   0.203000
  9076   H3    0.880    1.921   -0.042   H1   434      WrB   0.000000
  9077   C4    0.872    0.025   -1.104   Cg   434      WrB   0.236000
  9078   H4    0.260    0.411   -1.920   H1   434      WrB   0.000000
  9079   C5    0.482   -1.454   -0.856   Cg   434      WrB   0.335000
  9080  H5A    1.134   -1.905   -0.107   H1   434      WrB   0.000000
  9081  H5E    0.584   -2.026   -1.778   H1   434      WrB   0.000000
  9082   O5   -0.929   -1.535   -0.391   Os   434      WrB  -0.576000
  9083   O4    2.264    0.123   -1.509   Os   434      WrB  -0.478000
  9084   O3    1.467    0.383    1.240   Os   434      WrB  -0.462000
  9085   C1   -0.372   -1.612    0.923   Cg   435      WtA   0.456000
  9086   H1   -1.202   -2.122    1.415   H2   435      WtA   0.000000
  9087   O5   -0.898   -0.921   -0.281   Os   435      WtA  -0.480000
  9088   C5    0.025   -0.018   -1.021   Cg   435      WtA   0.157000
  9089   H5    0.881   -0.608   -1.357   H1   435      WtA   0.000000
  9090   C6   -0.695    0.513   -2.268   Cg   435      WtA   0.304000
  9091  H61   -1.630    1.006   -1.997   H1   435      WtA   0.000000
  9092  H62   -0.064    1.231   -2.792   H1   435      WtA   0.000000
  9093   O6   -0.975   -0.586   -3.146   Oh   435      WtA  -0.669000
  9094  H6O   -0.152   -1.013   -3.396   Ho   435      WtA   0.401000
  9095   C4    0.559    1.071   -0.066   Cg   435      WtA   0.434000
  9096   H4    1.317    1.666   -0.578   H1   435      WtA   0.000000
  9097   O4   -0.529    1.939    0.314   Os   435      WtA  -0.508000
  9098   C3    1.176    0.410    1.185   Cg   435      WtA   0.124000
  9099   H3    2.052   -0.146    0.846   H1   435      WtA   0.000000
  9100   C2    0.259   -0.604    1.905   Cg   435      WtA   0.245000
  9101   H2    0.825   -1.132    2.673   H1   435      WtA   0.000000
  9102   O2   -0.834    0.079    2.547   Oh   435      WtA  -0.655000
  9103  H2O   -1.395   -0.561    2.991   Ho   435      WtA   0.436000
  9104   O3    1.655    1.408    2.104   Os   435      WtA  -0.439000
  9105   C1   -1.112   -1.047    1.065   Cg   436      WtB   0.306000
  9106   H1   -0.561   -1.989    1.057   H2   436      WtB   0.000000
  9107   C2   -0.386   -0.042    1.985   Cg   436      WtB   0.340000
  9108   H2   -0.269   -0.467    2.983   H1   436      WtB   0.000000
  9109   O2   -1.169    1.167    2.079   Oh   436      WtB  -0.637000
  9110  H2O   -2.039    0.957    2.429   Ho   436      WtB   0.397000
  9111   C3    1.001    0.280    1.384   Cg   436      WtB   0.174000
  9112   H3    1.587   -0.639    1.436   H1   436      WtB   0.000000
  9113   C4    0.982    0.713   -0.101   Cg   436      WtB   0.314000
  9114   H4    2.004    0.771   -0.478   H1   436      WtB   0.000000
  9115   C5    0.178   -0.304   -0.945   Cg   436      WtB   0.031000
  9116   H5    0.724   -1.250   -0.923   H1   436      WtB   0.000000
  9117   C6   -0.023    0.083   -2.417   Cg   436      WtB   0.349000
  9118  H61    0.937    0.310   -2.882   H1   436      WtB   0.000000
  9119  H62   -0.666    0.960   -2.504   H1   436      WtB   0.000000
  9120   O6   -0.627   -1.019   -3.107   Oh   436      WtB  -0.666000
  9121  H6O   -1.471   -1.227   -2.699   Ho   436      WtB   0.406000
  9122   O5   -1.153   -0.524   -0.320   Os   436      WtB  -0.354000
  9123   O4    0.372    2.014   -0.232   Os   436      WtB  -0.407000
  9124   O3    1.691    1.252    2.189   Os   436      WtB  -0.447000
  9125   C1   -1.552   -0.901    0.209   Cg   437      WuA   0.363000
  9126   H1   -1.412   -1.396   -0.752   H2   437      WuA   0.000000
  9127   O5   -0.514   -1.344    1.141   Os   437      WuA  -0.515000
  9128   C5    0.892   -0.942    0.792   Cg   437      WuA   0.232000
  9129   H5    1.528   -1.293    1.607   H1   437      WuA   0.000000
  9130   C6    1.542   -1.526   -0.537    C   437      WuA   0.697000
  9131  O6B    2.697   -1.132   -0.830   O2   437      WuA  -0.757000
  9132  O6A    0.855   -2.296   -1.246   O2   437      WuA  -0.757000
  9133   C4    0.931    0.598    0.805   Cg   437      WuA   0.223000
  9134   H4    0.667    0.941    1.808   H1   437      WuA   0.000000
  9135   O4    2.275    1.087    0.506   Os   437      WuA  -0.508000
  9136   C3   -0.104    1.171   -0.198   Cg   437      WuA   0.417000
  9137   H3    0.207    0.903   -1.210   H1   437      WuA   0.000000
  9138   C2   -1.550    0.649    0.037   Cg   437      WuA   0.259000
  9139   H2   -1.944    1.103    0.949   H1   437      WuA   0.000000
  9140   O2   -2.419    1.027   -1.086   Oh   437      WuA  -0.685000
  9141  H2O   -2.035    0.733   -1.915   Ho   437      WuA   0.385000
  9142   O3   -0.063    2.620   -0.079   Os   437      WuA  -0.548000
  9143   C1    0.543   -1.105    1.326   Cg   438      WuB   0.278000
  9144   H1    1.284   -1.574    1.974   H2   438      WuB   0.000000
  9145   C2    0.805    0.429    1.282   Cg   438      WuB   0.289000
  9146   H2    1.843    0.569    0.978   H1   438      WuB   0.000000
  9147   O2    0.662    1.057    2.587   Oh   438      WuB  -0.680000
  9148  H2O    0.527    1.995    2.407   Ho   438      WuB   0.422000
  9149   C3   -0.091    1.133    0.239   Cg   438      WuB   0.286000
  9150   H3   -1.141    1.048    0.523   H1   438      WuB   0.000000
  9151   C4    0.133    0.493   -1.157   Cg   438      WuB   0.308000
  9152   H4    1.179    0.647   -1.433   H1   438      WuB   0.000000
  9153   C5   -0.126   -1.031   -1.145   Cg   438      WuB   0.194000
  9154   H5    0.260   -1.433   -2.083   H1   438      WuB   0.000000
  9155   C6   -1.673   -1.359   -1.162    C   438      WuB   0.750000
  9156  O6A   -2.103   -2.164   -0.304   O2   438      WuB  -0.783000
  9157  O6B   -2.384   -0.770   -2.011   O2   438      WuB  -0.783000
  9158   O5    0.696   -1.653   -0.039   Os   438      WuB  -0.430000
  9159   O4   -0.680    1.170   -2.158   Os   438      WuB  -0.517000
  9160   O3    0.266    2.547    0.175   Os   438      WuB  -0.528000
  9161   C1   -0.134   -1.248   -0.541   Cg   439      WvA   0.389000
  9162   H1    0.124   -1.585   -1.546   H2   439      WvA   0.000000
  9163   O5    0.895   -1.740    0.386   Os   439      WvA  -0.466000
  9164   C5    0.883   -1.210    1.786   Cg   439      WvA   0.112000
  9165   H5   -0.042   -1.554    2.251   H1   439      WvA   0.000000
  9166   C6    2.034   -1.823    2.610   Cg   439      WvA   0.362000
  9167  H61    1.969   -1.479    3.642   H1   439      WvA   0.000000
  9168  H62    1.957   -2.911    2.612   H1   439      WvA   0.000000
  9169   O6    3.310   -1.446    2.074   Oh   439      WvA  -0.711000
  9170  H6O    3.188   -0.584    1.642   Ho   439      WvA   0.424000
  9171   C4    0.837    0.337    1.790   Cg   439      WvA   0.326000
  9172   H4    0.691    0.687    2.813   H1   439      WvA   0.000000
  9173   O4    2.090    0.877    1.299   Os   439      WvA  -0.453000
  9174   C3   -0.317    0.863    0.904   Cg   439      WvA   0.176000
  9175   H3   -1.257    0.524    1.341   H1   439      WvA   0.000000
  9176   C2   -0.223    0.313   -0.543   Cg   439      WvA   0.399000
  9177   H2    0.700    0.693   -0.986   H1   439      WvA   0.000000
  9178   N2   -1.357    0.799   -1.365   Ng   439      WvA  -0.595000
  9179  H2N   -2.264    0.834   -0.928    H   439      WvA   0.238000
  9180  C2N   -1.282    0.924   -2.693    C   439      WvA   0.625000
  9181  O2N   -0.238    0.722   -3.305    O   439      WvA  -0.605000
  9182  CME   -2.577    1.344   -3.415   Cg   439      WvA   0.032000
  9183  H1M   -2.812    2.382   -3.174   Hc   439      WvA   0.000000
  9184  H2M   -2.454    1.250   -4.495   Hc   439      WvA   0.000000
  9185  H3M   -3.404    0.705   -3.101   Hc   439      WvA   0.000000
  9186   O3   -0.320    2.324    0.942   Os   439      WvA  -0.447000
  9187   C1   -0.820   -1.097    0.526   Cg   440      WvB   0.305000
  9188   H1   -0.200   -1.475    1.340   H2   440      WvB   0.000000
  9189   C2   -0.533    0.430    0.313   Cg   440      WvB   0.544000
  9190   H2   -1.216    0.797   -0.454   H1   440      WvB   0.000000
  9191   N2   -0.739    1.190    1.567   Ng   440      WvB  -0.686000
  9192  H2N   -0.349    0.818    2.416    H   440      WvB   0.254000
  9193  C2N   -1.446    2.323    1.618    C   440      WvB   0.586000
  9194  CME   -1.558    2.997    3.001   Cg   440      WvB   0.056000
  9195  H1M   -0.683    3.626    3.169   Hc   440      WvB   0.000000
  9196  H2M   -2.455    3.617    3.042   Hc   440      WvB   0.000000
  9197  H3M   -1.617    2.246    3.792   Hc   440      WvB   0.000000
  9198  O2N   -1.972    2.814    0.624    O   440      WvB  -0.564000
  9199   C3    0.929    0.600   -0.197   Cg   440      WvB   0.152000
  9200   H3    1.604    0.239    0.582   H1   440      WvB   0.000000
  9201   C4    1.180   -0.232   -1.473   Cg   440      WvB   0.253000
  9202   H4    2.225   -0.130   -1.769   H1   440      WvB   0.000000
  9203   C5    0.861   -1.725   -1.241   Cg   440      WvB   0.136000
  9204   H5    1.567   -2.102   -0.498   H1   440      WvB   0.000000
  9205   C6    1.008   -2.574   -2.516   Cg   440      WvB   0.353000
  9206  H61    1.993   -2.424   -2.960   H1   440      WvB   0.000000
  9207  H62    0.251   -2.304   -3.253   H1   440      WvB   0.000000
  9208   O6    0.859   -3.960   -2.172   Oh   440      WvB  -0.714000
  9209  H6O   -0.008   -4.070   -1.770   Ho   440      WvB   0.427000
  9210   O5   -0.518   -1.879   -0.684   Os   440      WvB  -0.408000
  9211   O4    0.350    0.282   -2.538   Os   440      WvB  -0.444000
  9212   O3    1.288    1.991   -0.467   Os   440      WvB  -0.444000
  9213   C1   -1.271   -1.284   -0.666   Cg   441      WwA   0.462100
  9214   H1   -1.043   -1.672   -1.658   H2   441      WwA   0.000000
  9215   O5   -0.260   -1.779    0.277   Os   441      WwA  -0.541500
  9216   C5   -0.297   -1.260    1.679   Cg   441      WwA   0.242100
  9217   H5   -1.201   -1.661    2.140   H1   441      WwA   0.000000
  9218   C6    0.904   -1.814    2.477   Cg   441      WwA   0.299500
  9219  H61    0.755   -1.638    3.543   H1   441      WwA   0.000000
  9220  H62    0.978   -2.891    2.326   H1   441      WwA   0.000000
  9221   O6    2.148   -1.200    2.081   Oh   441      WwA  -0.661800
  9222  H6O    2.256   -0.360    2.535   Ho   441      WwA   0.395900
  9223   C4   -0.396    0.284    1.704   Cg   441      WwA   0.321300
  9224   H4    0.568    0.712    1.426   H1   441      WwA   0.000000
  9225   O4   -0.713    0.708    3.063   Os   441      WwA  -0.482100
  9226   C3   -1.471    0.829    0.729   Cg   441      WwA   0.252000
  9227   H3   -2.455    0.536    1.100   H1   441      WwA   0.000000
  9228   C2   -1.306    0.269   -0.705   Cg   441      WwA   0.275000
  9229   H2   -2.170    0.575   -1.298   H1   441      WwA   0.000000
  9230   N2   -0.101    0.815   -1.374   Ng   441      WwA  -0.475100
  9231  H2N    0.569    1.303   -0.801    H   441      WwA   0.214200
  9232  C2N    0.102    0.769   -2.693    C   441      WwA   0.590900
  9233  O2N   -0.680    0.210   -3.458    O   441      WwA  -0.575700
  9234  CME    1.391    1.444   -3.194   Cg   441      WwA  -0.034000
  9235  H1M    1.385    2.502   -2.926   Hc   441      WwA   0.000000
  9236  H2M    1.467    1.356   -4.279   Hc   441      WwA   0.000000
  9237  H3M    2.260    0.964   -2.740   Hc   441      WwA   0.000000
  9238   O3   -1.420    2.283    0.714   Os   441      WwA  -0.476800
  9239   C1   -0.507   -0.956    1.605   Cg   442      WwB   0.387000
  9240   H1    0.138   -1.296    2.416   H2   442      WwB   0.000000
  9241   C2   -0.246    0.548    1.299   Cg   442      WwB   0.294000
  9242   H2   -0.356    1.103    2.233   H1   442      WwB   0.000000
  9243   N2   -1.205    1.105    0.311   Ng   442      WwB  -0.558000
  9244  H2N   -1.575    0.474   -0.381    H   442      WwB   0.265000
  9245  C2N   -1.624    2.374    0.322    C   442      WwB   0.585000
  9246  CME   -2.675    2.768   -0.738   Cg   442      WwB   0.056000
  9247  H1M   -2.193    3.353   -1.521   Hc   442      WwB   0.000000
  9248  H2M   -3.460    3.368   -0.275   Hc   442      WwB   0.000000
  9249  H3M   -3.132    1.885   -1.188   Hc   442      WwB   0.000000
  9250  O2N   -1.167    3.191    1.119    O   442      WwB  -0.600000
  9251   C3    1.222    0.699    0.824   Cg   442      WwB   0.217000
  9252   H3    1.872    0.426    1.658   H1   442      WwB   0.000000
  9253   C4    1.541   -0.224   -0.381   Cg   442      WwB   0.277000
  9254   H4    0.993    0.126   -1.257   H1   442      WwB   0.000000
  9255   C5    1.160   -1.697   -0.092   Cg   442      WwB   0.321000
  9256   H5    1.820   -2.087    0.686   H1   442      WwB   0.000000
  9257   C6    1.286   -2.596   -1.338   Cg   442      WwB   0.247000
  9258  H61    2.312   -2.594   -1.706   H1   442      WwB   0.000000
  9259  H62    0.637   -2.228   -2.133   H1   442      WwB   0.000000
  9260   O6    0.910   -3.952   -1.020   Oh   442      WwB  -0.663000
  9261  H6O    0.018   -3.951   -0.660   Ho   442      WwB   0.413000
  9262   O5   -0.248   -1.768    0.415   Os   442      WwB  -0.498000
  9263   O4    2.959   -0.153   -0.662   Os   442      WwB  -0.498000
  9264   O3    1.517    2.082    0.467   Os   442      WwB  -0.439000
  9265   C1   -0.302   -1.080   -1.223   Cg   443      WxA   0.482000
  9266   H1   -0.087   -1.398   -2.244   H2   443      WxA   0.000000
  9267   O5    0.705   -1.652   -0.329   Os   443      WxA  -0.588000
  9268   C5    0.683   -1.210    1.093   Cg   443      WxA   0.335000
  9269  H5A   -0.220   -1.596    1.568   H1   443      WxA   0.000000
  9270  H5E    1.542   -1.639    1.609   H1   443      WxA   0.000000
  9271   C4    0.721    0.325    1.195   Cg   443      WxA   0.247000
  9272   H4    1.699    0.678    0.865   H1   443      WxA   0.000000
  9273   O4    0.532    0.702    2.585   Os   443      WxA  -0.494000
  9274   C3   -0.383    0.957    0.314   Cg   443      WxA   0.359000
  9275   H3   -1.365    0.720    0.729   H1   443      WxA   0.000000
  9276   C2   -0.313    0.470   -1.148   Cg   443      WxA   0.197000
  9277   H2    0.618    0.830   -1.588   H1   443      WxA   0.000000
  9278   O2   -1.420    1.026   -1.928   Oh   443      WxA  -0.656000
  9279  H2O   -2.201    0.467   -1.817   Ho   443      WxA   0.409000
  9280   O3   -0.211    2.398    0.319   Os   443      WxA  -0.485000
  9281   C1   -1.126   -0.835    0.889   Cg   444      WxB   0.248000
  9282   H1   -0.482   -1.226    1.679   H2   444      WxB   0.000000
  9283   C2   -0.871    0.686    0.674   Cg   444      WxB   0.425000
  9284   H2   -1.639    1.091    0.012   H1   444      WxB   0.000000
  9285   O2   -0.947    1.366    1.955   Oh   444      WxB  -0.699000
  9286  H2O   -1.765    1.078    2.378   Ho   444      WxB   0.398000
  9287   C3    0.527    0.937    0.061   Cg   444      WxB   0.228000
  9288   H3    1.290    0.691    0.802   H1   444      WxB   0.000000
  9289   C4    0.752    0.070   -1.199   Cg   444      WxB   0.286000
  9290   H4    0.091    0.406   -1.999   H1   444      WxB   0.000000
  9291   C5    0.483   -1.421   -0.917   Cg   444      WxB   0.303000
  9292  H5A    1.218   -1.816   -0.214   H1   444      WxB   0.000000
  9293  H5E    0.551   -1.997   -1.841   H1   444      WxB   0.000000
  9294   O5   -0.874   -1.586   -0.344   Os   444      WxB  -0.447000
  9295   O4    2.124    0.213   -1.636   Os   444      WxB  -0.487000
  9296   O3    0.668    2.342   -0.300   Os   444      WxB  -0.449000
  9297   C1   -0.275   -1.441   -0.692   Cg   445      WyA   0.468000
  9298   H1   -0.016   -1.835   -1.675   H2   445      WyA   0.000000
  9299   O5    0.643   -2.018    0.290   Os   445      WyA  -0.568000
  9300   C5    0.641   -1.448    1.678   Cg   445      WyA   0.246000
  9301   H5   -0.316   -1.714    2.132   H1   445      WyA   0.000000
  9302   C6    1.750   -2.111    2.524   Cg   445      WyA   0.328000
  9303  H61    1.636   -3.194    2.491   H1   445      WyA   0.000000
  9304  H62    1.664   -1.798    3.564   H1   445      WyA   0.000000
  9305   O6    3.067   -1.767    2.041   Oh   445      WyA  -0.688000
  9306  H6O    3.730   -2.201    2.583   Ho   445      WyA   0.421000
  9307   C4    0.747    0.092    1.653   Cg   445      WyA   0.322000
  9308   H4    1.757    0.388    1.365   H1   445      WyA   0.000000
  9309   O4    0.470    0.597    2.981   Os   445      WyA  -0.478000
  9310   C3   -0.263    0.739    0.677   Cg   445      WyA   0.165000
  9311   H3   -1.274    0.610    1.069   H1   445      WyA   0.000000
  9312   C2   -0.194    0.114   -0.736   Cg   445      WyA   0.245000
  9313   H2    0.778    0.369   -1.164   H1   445      WyA   0.000000
  9314   N2   -1.237    0.683   -1.629   Ng   445      WyA  -0.552000
  9315  H2N   -2.098    0.160   -1.691    H   445      WyA   0.236000
  9316  C2N   -1.131    1.846   -2.281    C   445      WyA   0.588000
  9317  O2N   -0.166    2.587   -2.113    O   445      WyA  -0.579000
  9318  CME   -2.279    2.221   -3.242   Cg   445      WyA   0.063000
  9319  H1M   -2.749    3.144   -2.902   Hc   445      WyA   0.000000
  9320  H2M   -1.877    2.375   -4.245   Hc   445      WyA   0.000000
  9321  H3M   -3.036    1.435   -3.284   Hc   445      WyA   0.000000
  9322   O3    0.027    2.165    0.606   Os   445      WyA  -0.411000
  9323   C1   -0.821   -1.029    0.519   Cg   446      WyB   0.287000
  9324   H1   -0.205   -1.429    1.326   H2   446      WyB   0.000000
  9325   C2   -0.486    0.483    0.289   Cg   446      WyB   0.480000
  9326   H2   -1.167    0.860   -0.476   H1   446      WyB   0.000000
  9327   N2   -0.660    1.265    1.538   Ng   446      WyB  -0.722000
  9328  H2N   -0.306    0.866    2.391    H   446      WyB   0.300000
  9329  C2N   -1.428    2.355    1.616    C   446      WyB   0.648000
  9330  CME   -1.585    2.986    3.015   Cg   446      WyB   0.034000
  9331  H1M   -0.726    3.627    3.220   Hc   446      WyB   0.000000
  9332  H2M   -2.494    3.587    3.055   Hc   446      WyB   0.000000
  9333  H3M   -1.646    2.211    3.782   Hc   446      WyB   0.000000
  9334  O2N   -1.952    2.855    0.627    O   446      WyB  -0.576000
  9335   C3    0.966    0.617   -0.252   Cg   446      WyB   0.180000
  9336   H3    1.660    0.294    0.528   H1   446      WyB   0.000000
  9337   C4    1.172   -0.270   -1.503   Cg   446      WyB   0.302000
  9338   H4    0.550    0.102   -2.319   H1   446      WyB   0.000000
  9339   C5    0.825   -1.746   -1.220   Cg   446      WyB   0.208000
  9340   H5    1.501   -2.130   -0.453   H1   446      WyB   0.000000
  9341   C6    0.949   -2.632   -2.474   Cg   446      WyB   0.289000
  9342  H61    1.970   -2.617   -2.853   H1   446      WyB   0.000000
  9343  H62    0.285   -2.270   -3.260   H1   446      WyB   0.000000
  9344   O6    0.594   -3.987   -2.146   Oh   446      WyB  -0.689000
  9345  H6O   -0.282   -3.985   -1.752   Ho   446      WyB   0.424000
  9346   O5   -0.570   -1.817   -0.694   Os   446      WyB  -0.433000
  9347   O4    2.558   -0.190   -1.898   Os   446      WyB  -0.474000
  9348   O3    1.298    1.996   -0.605   Os   446      WyB  -0.452000
  9349   C1   -0.671   -0.710    1.541   Cg   447      WzA   0.398000
  9350   H1   -1.528   -0.908    2.185   H2   447      WzA   0.000000
  9351   O5   -0.928   -1.287    0.227   Os   447      WzA  -0.544000
  9352   C5    0.075   -1.025   -0.878   Cg   447      WzA   0.187000
  9353   H5    1.009   -1.482   -0.543   H1   447      WzA   0.000000
  9354   C6   -0.196   -1.698   -2.301    C   447      WzA   0.798000
  9355  O6B   -1.021   -2.637   -2.369   O2   447      WzA  -0.787000
  9356  O6A    0.481   -1.285   -3.279   O2   447      WzA  -0.787000
  9357   C4    0.343    0.496   -1.005   Cg   447      WzA   0.193000
  9358   H4   -0.521    0.961   -1.483   H1   447      WzA   0.000000
  9359   O4    1.499    0.662   -1.868   Os   447      WzA  -0.454000
  9360   C3    0.607    1.188    0.362   Cg   447      WzA   0.300000
  9361   H3    1.595    0.894    0.723   H1   447      WzA   0.000000
  9362   C2   -0.443    0.821    1.437   Cg   447      WzA   0.326000
  9363   H2   -1.394    1.276    1.158   H1   447      WzA   0.000000
  9364   O2   -0.051    1.363    2.743   Oh   447      WzA  -0.732000
  9365  H2O    0.564    0.734    3.138   Ho   447      WzA   0.406000
  9366   O3    0.581    2.638    0.211   Os   447      WzA  -0.498000
  9367   C1   -1.311   -0.517    1.136   Cg   448      WzB   0.251000
  9368   H1   -0.715   -0.928    1.952   H2   448      WzB   0.000000
  9369   C2   -1.032    1.003    0.959   Cg   448      WzB   0.411000
  9370   H2   -1.767    1.424    0.269   H1   448      WzB   0.000000
  9371   O2   -1.201    1.629    2.265   Oh   448      WzB  -0.740000
  9372  H2O   -2.057    1.337    2.591   Ho   448      WzB   0.422000
  9373   C3    0.393    1.255    0.400   Cg   448      WzB   0.266000
  9374   H3    1.120    1.036    1.185   H1   448      WzB   0.000000
  9375   C4    0.707    0.367   -0.833   Cg   448      WzB   0.267000
  9376   H4    0.113    0.709   -1.684   H1   448      WzB   0.000000
  9377   C5    0.403   -1.127   -0.602   Cg   448      WzB   0.075000
  9378   H5    1.062   -1.486    0.191   H1   448      WzB   0.000000
  9379   C6    0.775   -1.989   -1.878    C   448      WzB   0.893000
  9380  O6A    0.006   -2.920   -2.209   O2   448      WzB  -0.818000
  9381  O6B    1.844   -1.703   -2.477   O2   448      WzB  -0.818000
  9382   O5   -1.003   -1.249   -0.090   Os   448      WzB  -0.413000
  9383   O4    2.109    0.515   -1.165   Os   448      WzB  -0.498000
  9384   O3    0.556    2.645   -0.010   Os   448      WzB  -0.492000
  9385   C1   -0.529   -1.797    0.876   Cg   449      XeA   0.480000
  9386   H1   -1.311   -2.362    1.385   H2   449      XeA   0.000000
  9387   O5   -1.122   -1.166   -0.327   Os   449      XeA  -0.587000
  9388   C5   -0.317   -0.167   -1.074   Cg   449      XeA   0.374000
  9389   H5    0.582   -0.655   -1.457   H1   449      XeA   0.000000
  9390   C6   -1.162    0.326   -2.257   Cg   449      XeA   0.259000
  9391  H61   -2.118    0.722   -1.909   H1   449      XeA   0.000000
  9392  H62   -0.639    1.112   -2.799   H1   449      XeA   0.000000
  9393   O6   -1.398   -0.772   -3.149   Os   449      XeA  -0.451000
  9394   C4    0.090    0.944   -0.088   Cg   449      XeA   0.261000
  9395   H4   -0.812    1.462    0.241   H1   449      XeA   0.000000
  9396   O4    0.928    1.906   -0.753   Oh   449      XeA  -0.721000
  9397  H4O    1.741    1.480   -1.035   Ho   449      XeA   0.415000
  9398   C3    0.821    0.408    1.162   Cg   449      XeA   0.328000
  9399   H3    0.990    1.222    1.870   H1   449      XeA   0.000000
  9400   O3    2.104   -0.134    0.789   Oh   449      XeA  -0.714000
  9401  H3O    2.553   -0.461    1.572   Ho   449      XeA   0.420000
  9402   C2    0.035   -0.730    1.841   Cg   449      XeA   0.179000
  9403   H2    0.653   -1.207    2.604   H1   449      XeA   0.000000
  9404   O2   -1.090   -0.134    2.508   Os   449      XeA  -0.437000
  9405   C1   -1.681   -0.381    1.315   Cg   450      XeB   0.488000
  9406   H1   -1.127   -0.781    2.163   H2   450      XeB   0.000000
  9407   C2   -1.370    1.136    1.120   Cg   450      XeB   0.184000
  9408   H2   -1.557    1.668    2.053   H1   450      XeB   0.000000
  9409   C3    0.108    1.293    0.715   Cg   450      XeB   0.315000
  9410   H3    0.319    2.344    0.512   H1   450      XeB   0.000000
  9411   C4    0.439    0.451   -0.548   Cg   450      XeB   0.320000
  9412   H4   -0.144    0.835   -1.387   H1   450      XeB   0.000000
  9413   C5    0.078   -1.041   -0.338   Cg   450      XeB   0.257000
  9414   H5    0.720   -1.457    0.441   H1   450      XeB   0.000000
  9415   C6    0.269   -1.868   -1.624   Cg   450      XeB   0.278000
  9416  H61    1.307   -1.829   -1.954   H1   450      XeB   0.000000
  9417  H62   -0.361   -1.473   -2.422   H1   450      XeB   0.000000
  9418   O6   -0.091   -3.241   -1.383   Os   450      XeB  -0.463000
  9419   O5   -1.349   -1.158    0.115   Os   450      XeB  -0.532000
  9420   O4    1.848    0.593   -0.889   Oh   450      XeB  -0.724000
  9421  H4O    1.995    1.430   -1.345   Ho   450      XeB   0.420000
  9422   O3    0.933    0.877    1.838   Oh   450      XeB  -0.681000
  9423  H3O    1.853    0.856    1.548   Ho   450      XeB   0.403000
  9424   O2   -2.189    1.747    0.073   Os   450      XeB  -0.459000
  9425   C1   -0.736   -0.743    1.844   Cg   451      XgA   0.509000
  9426   H1   -1.613   -0.904    2.471   H2   451      XgA   0.000000
  9427   O5   -0.966   -1.366    0.541   Os   451      XgA  -0.574000
  9428   C5    0.054   -1.139   -0.535   Cg   451      XgA   0.283000
  9429   H5    0.997   -1.587   -0.215   H1   451      XgA   0.000000
  9430   C6   -0.401   -1.836   -1.838   Cg   451      XgA   0.276000
  9431  H61   -1.438   -1.578   -2.057   H1   451      XgA   0.000000
  9432  H62    0.211   -1.513   -2.681   H1   451      XgA   0.000000
  9433   O6   -0.281   -3.270   -1.722   Os   451      XgA  -0.458000
  9434   C4    0.278    0.376   -0.722   Cg   451      XgA   0.254000
  9435   H4   -0.621    0.824   -1.151   H1   451      XgA   0.000000
  9436   O4    1.385    0.581   -1.638   Oh   451      XgA  -0.710000
  9437  H4O    1.583    1.528   -1.641   Ho   451      XgA   0.436000
  9438   C3    0.605    1.065    0.624   Cg   451      XgA   0.286000
  9439   H3    1.575    0.720    0.986   H1   451      XgA   0.000000
  9440   O3    0.672    2.499    0.406   Oh   451      XgA  -0.699000
  9441  H3O    0.641    2.925    1.273   Ho   451      XgA   0.427000
  9442   C2   -0.468    0.782    1.697   Cg   451      XgA   0.246000
  9443   H2   -1.401    1.253    1.383   H1   451      XgA   0.000000
  9444   O2   -0.073    1.384    2.973   Os   451      XgA  -0.470000
  9445   C1   -1.552   -0.429    1.392   Cg   452      XgB   0.384000
  9446   H1   -0.978   -0.829    2.229   H2   452      XgB   0.000000
  9447   C2   -1.202    1.064    1.137   Cg   452      XgB   0.310000
  9448   H2   -1.900    1.478    0.406   H1   452      XgB   0.000000
  9449   C3    0.241    1.193    0.599   Cg   452      XgB   0.284000
  9450   H3    0.942    0.932    1.394   H1   452      XgB   0.000000
  9451   C4    0.493    0.273   -0.620   Cg   452      XgB   0.276000
  9452   H4   -0.101    0.623   -1.467   H1   452      XgB   0.000000
  9453   C5    0.120   -1.191   -0.305   Cg   452      XgB   0.225000
  9454   H5    0.777   -1.565    0.483   H1   452      XgB   0.000000
  9455   C6    0.253   -2.111   -1.534   Cg   452      XgB   0.282000
  9456  H61    1.282   -2.130   -1.890   H1   452      XgB   0.000000
  9457  H62   -0.385   -1.753   -2.343   H1   452      XgB   0.000000
  9458   O6   -0.144   -3.451   -1.185   Os   452      XgB  -0.458000
  9459   O5   -1.287   -1.235    0.197   Os   452      XgB  -0.471000
  9460   O4    1.895    0.334   -0.978   Oh   452      XgB  -0.714000
  9461  H4O    2.135    1.268   -1.049   Ho   452      XgB   0.440000
  9462   O3    0.483    2.571    0.205   Oh   452      XgB  -0.709000
  9463  H3O    0.243    3.133    0.954   Ho   452      XgB   0.432000
  9464   O2   -1.315    1.823    2.376   Os   452      XgB  -0.475000
  9465   C1   -0.498   -1.792    0.838   Cg   453      XkA   0.473000
  9466   H1   -1.288   -2.325    1.366   H2   453      XkA   0.000000
  9467   O5   -1.099   -1.092   -0.321   Os   453      XkA  -0.540000
  9468   C5   -0.222   -0.169   -1.093   Cg   453      XkA   0.301000
  9469   H5    0.609   -0.751   -1.497   H1   453      XkA   0.000000
  9470   C6   -1.017    0.392   -2.280   Cg   453      XkA   0.287000
  9471  H61   -1.931    0.880   -1.940   H1   453      XkA   0.000000
  9472  H62   -0.417    1.120   -2.826   H1   453      XkA   0.000000
  9473   O6   -1.356   -0.686   -3.163   Os   453      XkA  -0.463000
  9474   C4    0.380    0.901   -0.148   Cg   453      XkA   0.196000
  9475   H4    1.109    1.499   -0.697   H1   453      XkA   0.000000
  9476   O4   -0.666    1.781    0.302   Oh   453      XkA  -0.712000
  9477  H4O   -1.086    2.194   -0.457   Ho   453      XkA   0.420000
  9478   C3    1.042    0.296    1.105   Cg   453      XkA   0.354000
  9479   H3    1.298    1.085    1.813   H1   453      XkA   0.000000
  9480   O3    2.263   -0.338    0.679   Oh   453      XkA  -0.744000
  9481  H3O    2.710   -0.715    1.440   Ho   453      XkA   0.436000
  9482   C2    0.114   -0.736    1.783   Cg   453      XkA   0.281000
  9483   H2   -0.723   -0.176    2.202   H1   453      XkA   0.000000
  9484   O2    0.776   -1.367    2.894   Os   453      XkA  -0.483000
  9485   C1   -1.457   -0.481    1.351   Cg   454      XkB   0.449000
  9486   H1   -0.875   -0.912    2.167   H2   454      XkB   0.000000
  9487   C2   -1.153    1.037    1.181   Cg   454      XkB   0.308000
  9488   H2   -1.844    1.455    0.448   H1   454      XkB   0.000000
  9489   C3    0.292    1.243    0.668   Cg   454      XkB   0.253000
  9490   H3    0.453    2.303    0.467   H1   454      XkB   0.000000
  9491   C4    0.572    0.429   -0.615   Cg   454      XkB   0.217000
  9492   H4    1.630    0.505   -0.869   H1   454      XkB   0.000000
  9493   C5    0.209   -1.068   -0.418   Cg   454      XkB   0.303000
  9494   H5    0.896   -1.483    0.323   H1   454      XkB   0.000000
  9495   C6    0.357   -1.899   -1.708   Cg   454      XkB   0.259000
  9496  H61    1.356   -1.771   -2.125   H1   454      XkB   0.000000
  9497  H62   -0.368   -1.578   -2.455   H1   454      XkB   0.000000
  9498   O6    0.150   -3.297   -1.425   Os   454      XkB  -0.448000
  9499   O5   -1.185   -1.215    0.113   Os   454      XkB  -0.514000
  9500   O4   -0.188    1.008   -1.712   Oh   454      XkB  -0.700000
  9501  H4O    0.216    1.835   -2.000   Ho   454      XkB   0.425000
  9502   O3    1.249    0.830    1.679   Oh   454      XkB  -0.710000
  9503  H3O    1.018    1.291    2.498   Ho   454      XkB   0.442000
  9504   O2   -1.331    1.769    2.434   Os   454      XkB  -0.478000
  9505   C1   -0.524   -1.848    0.764   Cg   455      XlA   0.465000
  9506   H1   -1.338   -2.363    1.273   H2   455      XlA   0.000000
  9507   O5   -1.077   -1.140   -0.415   Os   455      XlA  -0.527000
  9508   C5   -0.148   -0.250   -1.167   Cg   455      XlA   0.216000
  9509   H5    0.688   -0.852   -1.528   H1   455      XlA   0.000000
  9510   C6   -0.883    0.311   -2.393   Cg   455      XlA   0.308000
  9511  H61   -1.800    0.823   -2.097   H1   455      XlA   0.000000
  9512  H62   -0.246    1.020   -2.922   H1   455      XlA   0.000000
  9513   O6   -1.207   -0.772   -3.275   Os   455      XlA  -0.460000
  9514   C4    0.426    0.816   -0.208   Cg   455      XlA   0.204000
  9515   H4    1.166    1.421   -0.733   H1   455      XlA   0.000000
  9516   O4   -0.656    1.672    0.221   Oh   455      XlA  -0.673000
  9517  H4O   -1.060    2.086   -0.545   Ho   455      XlA   0.436000
  9518   C3    1.077    0.142    1.018   Cg   455      XlA   0.253000
  9519   H3    1.949   -0.422    0.682   H1   455      XlA   0.000000
  9520   O3    1.527    1.159    1.933   Oh   455      XlA  -0.701000
  9521  H3O    1.942    0.745    2.693   Ho   455      XlA   0.433000
  9522   C2    0.100   -0.814    1.730   Cg   455      XlA   0.339000
  9523   H2   -0.711   -0.230    2.169   H1   455      XlA   0.000000
  9524   O2    0.775   -1.503    2.799   Os   455      XlA  -0.487000
  9525   C1   -1.425   -0.480    1.434   Cg   456      XlB   0.374000
  9526   H1   -0.854   -0.878    2.274   H2   456      XlB   0.000000
  9527   C2   -1.074    1.019    1.199   Cg   456      XlB   0.357000
  9528   H2   -1.775    1.452    0.483   H1   456      XlB   0.000000
  9529   C3    0.370    1.150    0.660   Cg   456      XlB   0.259000
  9530   H3    1.065    0.827    1.438   H1   456      XlB   0.000000
  9531   C4    0.609    0.273   -0.591   Cg   456      XlB   0.203000
  9532   H4    1.659    0.338   -0.881   H1   456      XlB   0.000000
  9533   C5    0.250   -1.201   -0.296   Cg   456      XlB   0.140000
  9534   H5    0.935   -1.561    0.474   H1   456      XlB   0.000000
  9535   C6    0.393   -2.116   -1.525   Cg   456      XlB   0.319000
  9536  H61    1.390   -2.020   -1.955   H1   456      XlB   0.000000
  9537  H62   -0.340   -1.856   -2.290   H1   456      XlB   0.000000
  9538   O6    0.189   -3.479   -1.120   Os   456      XlB  -0.468000
  9539   O5   -1.141   -1.292    0.243   Os   456      XlB  -0.402000
  9540   O4   -0.200    0.761   -1.690   Oh   456      XlB  -0.664000
  9541  H4O   -0.031    1.709   -1.769   Ho   456      XlB   0.437000
  9542   O3    0.678    2.534    0.337   Oh   456      XlB  -0.694000
  9543  H3O    0.474    3.067    1.118   Ho   456      XlB   0.433000
  9544   O2   -1.172    1.754    2.456   Os   456      XlB  -0.488000
  9545   C1   -0.896   -0.782    1.783   Cg   457      XmA   0.433000
  9546   H1   -1.829   -0.962    2.317   H2   457      XmA   0.000000
  9547   O5   -0.978   -1.418    0.460   Os   457      XmA  -0.507000
  9548   C5    0.097   -1.123   -0.539   Cg   457      XmA   0.276000
  9549   H5    1.026   -1.569   -0.178   H1   457      XmA   0.000000
  9550   C6   -0.267   -1.775   -1.891   Cg   457      XmA   0.266000
  9551  H61   -1.287   -1.507   -2.173   H1   457      XmA   0.000000
  9552  H62    0.402   -1.426   -2.677   H1   457      XmA   0.000000
  9553   O6   -0.157   -3.213   -1.817   Os   457      XmA  -0.460000
  9554   C4    0.310    0.403   -0.667   Cg   457      XmA   0.326000
  9555   H4   -0.557    0.860   -1.146   H1   457      XmA   0.000000
  9556   O4    1.482    0.645   -1.489   Oh   457      XmA  -0.733000
  9557  H4O    1.656    1.595   -1.468   Ho   457      XmA   0.438000
  9558   C3    0.539    1.039    0.727   Cg   457      XmA   0.252000
  9559   H3    1.450    0.619    1.157   H1   457      XmA   0.000000
  9560   O3    0.731    2.483    0.612   Oh   457      XmA  -0.696000
  9561  H3O    1.150    2.819    1.413   Ho   457      XmA   0.431000
  9562   C2   -0.637    0.748    1.685   Cg   457      XmA   0.245000
  9563   H2   -0.398    1.138    2.676   H1   457      XmA   0.000000
  9564   O2   -1.838    1.428    1.213   Os   457      XmA  -0.465000
  9565   C1   -1.580   -0.472    1.462   Cg   458      XmB   0.314000
  9566   H1   -0.947   -0.773    2.298   H2   458      XmB   0.000000
  9567   C2   -1.356    1.031    1.135   Cg   458      XmB   0.241000
  9568   H2   -1.575    1.638    2.014   H1   458      XmB   0.000000
  9569   C3    0.128    1.196    0.731   Cg   458      XmB   0.263000
  9570   H3    0.743    0.847    1.563   H1   458      XmB   0.000000
  9571   C4    0.454    0.336   -0.520   Cg   458      XmB   0.349000
  9572   H4   -0.121    0.691   -1.377   H1   458      XmB   0.000000
  9573   C5    0.130   -1.155   -0.251   Cg   458      XmB   0.206000
  9574   H5    0.829   -1.536    0.497   H1   458      XmB   0.000000
  9575   C6    0.260   -2.009   -1.525   Cg   458      XmB   0.273000
  9576  H61    1.273   -1.951   -1.923   H1   458      XmB   0.000000
  9577  H62   -0.431   -1.653   -2.290   H1   458      XmB   0.000000
  9578   O6   -0.043   -3.384   -1.224   Os   458      XmB  -0.455000
  9579   O5   -1.255   -1.309    0.298   Os   458      XmB  -0.393000
  9580   O4    1.868    0.448   -0.833   Oh   458      XmB  -0.746000
  9581  H4O    2.011    1.277   -1.302   Ho   458      XmB   0.443000
  9582   O3    0.454    2.602    0.527   Oh   458      XmB  -0.692000
  9583  H3O    1.394    2.741    0.675   Ho   458      XmB   0.430000
  9584   O2   -2.237    1.435    0.044   Os   458      XmB  -0.427000
  9585   C1   -0.581   -1.859    0.869   Cg   459      XnA   0.478000
  9586   H1   -1.371   -2.443    1.341   H2   459      XnA   0.000000
  9587   O5   -1.141   -1.198   -0.330   Os   459      XnA  -0.611000
  9588   C5   -0.314   -0.177   -1.032   Cg   459      XnA   0.404000
  9589   H5    0.574   -0.667   -1.437   H1   459      XnA   0.000000
  9590   C6   -1.150    0.383   -2.191   Cg   459      XnA   0.280000
  9591  H61   -2.094    0.790   -1.825   H1   459      XnA   0.000000
  9592  H62   -0.608    1.177   -2.704   H1   459      XnA   0.000000
  9593   O6   -1.417   -0.671   -3.127   Os   459      XnA  -0.461000
  9594   C4    0.122    0.892   -0.006   Cg   459      XnA   0.167000
  9595   H4   -0.764    1.438    0.322   H1   459      XnA   0.000000
  9596   O4    1.007    1.835   -0.638   Oh   459      XnA  -0.733000
  9597  H4O    1.795    1.379   -0.943   Ho   459      XnA   0.444000
  9598   C3    0.812    0.307    1.243   Cg   459      XnA   0.330000
  9599   H3    0.998    1.097    1.972   H1   459      XnA   0.000000
  9600   O3    2.074   -0.291    0.871   Oh   459      XnA  -0.714000
  9601  H3O    2.665    0.390    0.540   Ho   459      XnA   0.441000
  9602   C2   -0.108   -0.768    1.855   Cg   459      XnA   0.228000
  9603   H2   -1.004   -0.254    2.205   H1   459      XnA   0.000000
  9604   O2    0.504   -1.361    3.015   Os   459      XnA  -0.447000
  9605   C1   -1.569   -0.390    1.294   Cg   460      XnB   0.422000
  9606   H1   -0.987   -0.796    2.124   H2   460      XnB   0.000000
  9607   C2   -1.265    1.123    1.079   Cg   460      XnB   0.301000
  9608   H2   -1.966    1.523    0.342   H1   460      XnB   0.000000
  9609   C3    0.168    1.324    0.542   Cg   460      XnB   0.234000
  9610   H3    0.327    2.382    0.319   H1   460      XnB   0.000000
  9611   C4    0.373    0.486   -0.741   Cg   460      XnB   0.286000
  9612   H4   -0.324    0.837   -1.503   H1   460      XnB   0.000000
  9613   C5    0.104   -1.015   -0.480   Cg   460      XnB   0.198000
  9614   H5    0.814   -1.384    0.262   H1   460      XnB   0.000000
  9615   C6    0.243   -1.875   -1.751   Cg   460      XnB   0.313000
  9616  H61    1.257   -1.814   -2.148   H1   460      XnB   0.000000
  9617  H62   -0.451   -1.533   -2.518   H1   460      XnB   0.000000
  9618   O6   -0.050   -3.246   -1.428   Os   460      XnB  -0.465000
  9619   O5   -1.282   -1.162    0.076   Os   460      XnB  -0.507000
  9620   O4    1.716    0.684   -1.242   Oh   460      XnB  -0.707000
  9621  H4O    2.314    0.729   -0.485   Ho   460      XnB   0.430000
  9622   O3    1.133    0.916    1.556   Oh   460      XnB  -0.615000
  9623  H3O    0.870    1.327    2.390   Ho   460      XnB   0.389000
  9624   O2   -1.426    1.885    2.311   Os   460      XnB  -0.473000
  9625   C1   -0.509   -1.856    0.784   Cg   461      XtA   0.456000
  9626   H1   -1.338   -2.367    1.276   H2   461      XtA   0.000000
  9627   O5   -1.035   -1.165   -0.421   Os   461      XtA  -0.480000
  9628   C5   -0.111   -0.263   -1.160   Cg   461      XtA   0.157000
  9629   H5    0.744   -0.853   -1.496   H1   461      XtA   0.000000
  9630   C6   -0.832    0.268   -2.408   Cg   461      XtA   0.304000
  9631  H61   -1.767    0.761   -2.137   H1   461      XtA   0.000000
  9632  H62   -0.201    0.986   -2.931   H1   461      XtA   0.000000
  9633   O6   -1.111   -0.831   -3.285   Os   461      XtA  -0.462000
  9634   C4    0.423    0.826   -0.205   Cg   461      XtA   0.434000
  9635   H4    1.180    1.421   -0.717   H1   461      XtA   0.000000
  9636   O4   -0.665    1.694    0.175   Oh   461      XtA  -0.731000
  9637  H4O   -1.039    2.101   -0.611   Ho   461      XtA   0.417000
  9638   C3    1.040    0.165    1.045   Cg   461      XtA   0.124000
  9639   H3    1.916   -0.390    0.707   H1   461      XtA   0.000000
  9640   O3    1.518    1.163    1.965   Oh   461      XtA  -0.687000
  9641  H3O    1.945    0.734    2.710   Ho   461      XtA   0.442000
  9642   C2    0.122   -0.849    1.766   Cg   461      XtA   0.245000
  9643   H2    0.689   -1.377    2.534   H1   461      XtA   0.000000
  9644   O2   -0.971   -0.166    2.408   Os   461      XtA  -0.413000
  9645   C1   -1.366   -1.278    1.001   Cg   462      XtB   0.306000
  9646   H1   -0.816   -2.221    0.993   H2   462      XtB   0.000000
  9647   C2   -0.640   -0.273    1.921   Cg   462      XtB   0.340000
  9648   H2   -0.523   -0.698    2.919   H1   462      XtB   0.000000
  9649   C3    0.747    0.048    1.319   Cg   462      XtB   0.174000
  9650   H3    1.333   -0.870    1.371   H1   462      XtB   0.000000
  9651   C4    0.727    0.482   -0.166   Cg   462      XtB   0.314000
  9652   H4    1.750    0.540   -0.542   H1   462      XtB   0.000000
  9653   C5   -0.076   -0.536   -1.009   Cg   462      XtB   0.031000
  9654   H5    0.469   -1.481   -0.987   H1   462      XtB   0.000000
  9655   C6   -0.277   -0.148   -2.481   Cg   462      XtB   0.349000
  9656  H61    0.683    0.078   -2.946   H1   462      XtB   0.000000
  9657  H62   -0.920    0.729   -2.568   H1   462      XtB   0.000000
  9658   O6   -0.881   -1.250   -3.172   Os   462      XtB  -0.454000
  9659   O5   -1.407   -0.755   -0.384   Os   462      XtB  -0.354000
  9660   O4    0.117    1.783   -0.296   Oh   462      XtB  -0.626000
  9661  H4O    0.115    2.044   -1.220   Ho   462      XtB   0.413000
  9662   O3    1.437    1.021    2.125   Oh   462      XtB  -0.678000
  9663  H3O    0.952    1.850    2.108   Ho   462      XtB   0.425000
  9664   O2   -1.424    0.936    2.015   Os   462      XtB  -0.434000
  9665   C1   -1.009   -1.468    0.267   Cg   463      YaA   0.448000
  9666   H1   -1.928   -1.858    0.706   H2   463      YaA   0.000000
  9667   O5   -1.352   -0.800   -1.014   Os   463      YaA  -0.564000
  9668   C5   -0.302    0.001   -1.679   Cg   463      YaA   0.379000
  9669  H5A    0.515   -0.654   -1.984   H1   463      YaA   0.000000
  9670  H5E   -0.720    0.467   -2.571   H1   463      YaA   0.000000
  9671   C4    0.190    1.070   -0.698   Cg   463      YaA   0.245000
  9672   H4   -0.637    1.749   -0.488   H1   463      YaA   0.000000
  9673   O4    1.236    1.833   -1.323   Os   463      YaA  -0.508000
  9674   C3    0.687    0.478    0.637   Cg   463      YaA   0.335000
  9675   H3    0.925    1.282    1.334   H1   463      YaA   0.000000
  9676   O3    1.884   -0.295    0.418   Oh   463      YaA  -0.772000
  9677  H3O    2.192   -0.651    1.255   Ho   463      YaA   0.461000
  9678   C2   -0.356   -0.475    1.258   Cg   463      YaA   0.268000
  9679   H2    0.088   -1.020    2.093   H1   463      YaA   0.000000
  9680   O2   -1.414    0.339    1.790   Os   463      YaA  -0.486000
  9681   C1   -1.522   -0.703    0.826   Cg   464      YaB   0.379000
  9682   H1   -0.986   -1.108    1.685   H2   464      YaB   0.000000
  9683   C2   -1.187    0.814    0.651   Cg   464      YaB   0.300000
  9684   H2   -1.369    1.337    1.590   H1   464      YaB   0.000000
  9685   C3    0.293    0.967    0.240   Cg   464      YaB   0.297000
  9686   H3    0.502    2.015    0.018   H1   464      YaB   0.000000
  9687   C4    0.629    0.103   -1.003   Cg   464      YaB   0.224000
  9688   H4    0.055    0.470   -1.855   H1   464      YaB   0.000000
  9689   C5    0.254   -1.378   -0.770   Cg   464      YaB   0.356000
  9690  H5A    0.884   -1.815    0.006   H1   464      YaB   0.000000
  9691  H5E    0.403   -1.949   -1.686   H1   464      YaB   0.000000
  9692   O5   -1.170   -1.487   -0.362   Os   464      YaB  -0.529000
  9693   O4    2.043    0.224   -1.339   Os   464      YaB  -0.484000
  9694   O3    1.136    0.567    1.355   Oh   464      YaB  -0.668000
  9695  H3O    2.044    0.510    1.028   Ho   464      YaB   0.407000
  9696   O2   -2.010    1.432   -0.384   Os   464      YaB  -0.476000
  9697   C1   -0.423   -1.246   -1.304   Cg   465      YdA   0.398000
  9698   H1   -0.180   -1.585   -2.311   H2   465      YdA   0.000000
  9699   O5    0.535   -1.850   -0.368   Os   465      YdA  -0.487000
  9700   C5    0.553   -1.334    1.030   Cg   465      YdA   0.275000
  9701  H5A   -0.354   -1.672    1.535   H1   465      YdA   0.000000
  9702  H5E    1.406   -1.764    1.555   H1   465      YdA   0.000000
  9703   C4    0.631    0.207    1.067   Cg   465      YdA   0.351000
  9704   H4    1.609    0.537    0.715   H1   465      YdA   0.000000
  9705   O4    0.451    0.642    2.436   Os   465      YdA  -0.483000
  9706   C3   -0.487    0.820    0.195   Cg   465      YdA   0.184000
  9707   H3   -1.452    0.507    0.596   H1   465      YdA   0.000000
  9708   O3   -0.452    2.277    0.255   Oh   465      YdA  -0.655000
  9709  H3O   -1.041    2.651   -0.408   Ho   465      YdA   0.417000
  9710   C2   -0.394    0.313   -1.265   Cg   465      YdA   0.246000
  9711   H2   -1.236    0.705   -1.837   H1   465      YdA   0.000000
  9712   O2    0.834    0.792   -1.889   Os   465      YdA  -0.440000
  9713   C1    1.376   -1.024    0.909   Cg   466      YdB   0.448000
  9714   H1    1.702   -1.570    0.023   H2   466      YdB   0.000000
  9715   C2    1.323    0.486    0.594   Cg   466      YdB   0.226000
  9716   H2    2.305    0.841    0.280   H1   466      YdB   0.000000
  9717   C3    0.288    0.731   -0.524   Cg   466      YdB   0.201000
  9718   H3    0.656    0.259   -1.437   H1   466      YdB   0.000000
  9719   C4   -1.100    0.150   -0.180   Cg   466      YdB   0.335000
  9720   H4   -1.566    0.729    0.619   H1   466      YdB   0.000000
  9721   C5   -1.012   -1.328    0.240   Cg   466      YdB   0.275000
  9722  H5A   -0.754   -1.955   -0.615   H1   466      YdB   0.000000
  9723  H5E   -1.971   -1.666    0.631   H1   466      YdB   0.000000
  9724   O5    0.025   -1.498    1.283   Os   466      YdB  -0.519000
  9725   O4   -1.928    0.206   -1.352   Os   466      YdB  -0.467000
  9726   O3    0.177    2.146   -0.770   Oh   466      YdB  -0.701000
  9727  H3O   -0.441    2.299   -1.488   Ho   466      YdB   0.432000
  9728   O2    0.918    1.196    1.786   Os   466      YdB  -0.424000
  9729   C1   -0.414   -1.667    0.998   Cg   467      YeA   0.480000
  9730   H1   -1.196   -2.232    1.507   H2   467      YeA   0.000000
  9731   O5   -1.007   -1.036   -0.205   Os   467      YeA  -0.587000
  9732   C5   -0.202   -0.038   -0.953   Cg   467      YeA   0.374000
  9733   H5    0.697   -0.525   -1.336   H1   467      YeA   0.000000
  9734   C6   -1.048    0.455   -2.135   Cg   467      YeA   0.259000
  9735  H61   -2.003    0.852   -1.788   H1   467      YeA   0.000000
  9736  H62   -0.524    1.242   -2.678   H1   467      YeA   0.000000
  9737   O6   -1.283   -0.642   -3.028   Oh   467      YeA  -0.663000
  9738  H6O   -0.443   -0.983   -3.344   Ho   467      YeA   0.406000
  9739   C4    0.205    1.074    0.034   Cg   467      YeA   0.261000
  9740   H4   -0.697    1.591    0.362   H1   467      YeA   0.000000
  9741   O4    1.043    2.036   -0.632   Os   467      YeA  -0.500000
  9742   C3    0.936    0.538    1.284   Cg   467      YeA   0.328000
  9743   H3    1.105    1.351    1.991   H1   467      YeA   0.000000
  9744   O3    2.219   -0.004    0.911   Oh   467      YeA  -0.714000
  9745  H3O    2.668   -0.331    1.694   Ho   467      YeA   0.420000
  9746   C2    0.150   -0.600    1.963   Cg   467      YeA   0.179000
  9747   H2    0.768   -1.077    2.726   H1   467      YeA   0.000000
  9748   O2   -0.975   -0.004    2.630   Os   467      YeA  -0.437000
  9749   C1   -1.534   -0.146    1.296   Cg   468      YeB   0.488000
  9750   H1   -0.979   -0.547    2.145   H2   468      YeB   0.000000
  9751   C2   -1.222    1.370    1.101   Cg   468      YeB   0.184000
  9752   H2   -1.409    1.902    2.035   H1   468      YeB   0.000000
  9753   C3    0.255    1.527    0.697   Cg   468      YeB   0.315000
  9754   H3    0.467    2.578    0.493   H1   468      YeB   0.000000
  9755   C4    0.586    0.685   -0.567   Cg   468      YeB   0.320000
  9756   H4    0.004    1.069   -1.406   H1   468      YeB   0.000000
  9757   C5    0.226   -0.806   -0.356   Cg   468      YeB   0.257000
  9758   H5    0.868   -1.223    0.422   H1   468      YeB   0.000000
  9759   C6    0.417   -1.634   -1.642   Cg   468      YeB   0.278000
  9760  H61    1.455   -1.595   -1.973   H1   468      YeB   0.000000
  9761  H62   -0.213   -1.238   -2.441   H1   468      YeB   0.000000
  9762   O6    0.057   -3.007   -1.401   Oh   468      YeB  -0.677000
  9763  H6O   -0.814   -3.019   -0.993   Ho   468      YeB   0.408000
  9764   O5   -1.201   -0.924    0.096   Os   468      YeB  -0.532000
  9765   O4    1.996    0.827   -0.908   Os   468      YeB  -0.498000
  9766   O3    1.081    1.111    1.819   Oh   468      YeB  -0.681000
  9767  H3O    2.001    1.090    1.529   Ho   468      YeB   0.403000
  9768   O2   -2.041    1.981    0.054   Os   468      YeB  -0.459000
  9769   C1   -0.541   -1.009   -1.623   Cg   469      YfA   0.399000
  9770   H1   -0.217   -1.416   -2.581   H2   469      YfA   0.000000
  9771   O5    0.364   -1.509   -0.575   Os   469      YfA  -0.494000
  9772   C5    0.197   -0.930    0.794   Cg   469      YfA   0.187000
  9773   H5   -0.770   -1.261    1.176   H1   469      YfA   0.000000
  9774   C6    1.271   -1.541    1.697   Cg   469      YfA   0.065000
  9775  H61    2.279   -1.313    1.346   Hc   469      YfA   0.000000
  9776  H62    1.180   -2.628    1.738   Hc   469      YfA   0.000000
  9777  H63    1.186   -1.172    2.719   Hc   469      YfA   0.000000
  9778   C4    0.168    0.623    0.760   Cg   469      YfA   0.263000
  9779   H4   -0.129    0.989    1.744   H1   469      YfA   0.000000
  9780   O4    1.490    1.146    0.466   Os   469      YfA  -0.486000
  9781   C3   -0.834    1.148   -0.297   Cg   469      YfA   0.228000
  9782   H3   -1.839    0.836   -0.008   H1   469      YfA   0.000000
  9783   O3   -0.812    2.612   -0.298   Oh   469      YfA  -0.693000
  9784  H3O   -1.635    2.934   -0.686   Ho   469      YfA   0.426000
  9785   C2   -0.496    0.555   -1.688   Cg   469      YfA   0.456000
  9786   H2    0.520    0.845   -1.961   H1   469      YfA   0.000000
  9787   O2   -1.382    1.090   -2.722   Os   469      YfA  -0.545000
  9788   C1   -1.204   -1.365    0.826   Cg   470      YfB   0.418000
  9789   H1   -0.609   -2.276    0.745   H2   470      YfB   0.000000
  9790   C2   -0.522   -0.360    1.781   Cg   470      YfB   0.346000
  9791   H2   -1.223    0.431    2.056   H1   470      YfB   0.000000
  9792   C3    0.748    0.255    1.159   Cg   470      YfB   0.255000
  9793   H3    1.517   -0.517    1.086   H1   470      YfB   0.000000
  9794   C4    0.510    0.818   -0.257   Cg   470      YfB   0.229000
  9795   H4    1.453    1.165   -0.683   H1   470      YfB   0.000000
  9796   C5   -0.100   -0.278   -1.155   Cg   470      YfB   0.106000
  9797   H5    0.609   -1.106   -1.215   H1   470      YfB   0.000000
  9798   C6   -0.429    0.147   -2.589   Cg   470      YfB   0.092000
  9799  H61   -0.808   -0.693   -3.172   Hc   470      YfB   0.000000
  9800  H62   -1.186    0.933   -2.620   Hc   470      YfB   0.000000
  9801  H63    0.457    0.524   -3.102   Hc   470      YfB   0.000000
  9802   O5   -1.344   -0.775   -0.524   Os   470      YfB  -0.442000
  9803   O4   -0.412    1.929   -0.192   Os   470      YfB  -0.430000
  9804   O3    1.250    1.302    2.010   Oh   470      YfB  -0.676000
  9805  H3O    1.422    0.948    2.885   Ho   470      YfB   0.427000
  9806   O2   -0.129   -1.082    2.962   Os   470      YfB  -0.519000
  9807   C1   -0.689   -0.490    1.853   Cg   471      YgA   0.509000
  9808   H1   -1.565   -0.651    2.481   H2   471      YgA   0.000000
  9809   O5   -0.919   -1.114    0.551   Os   471      YgA  -0.574000
  9810   C5    0.101   -0.886   -0.525   Cg   471      YgA   0.283000
  9811   H5    1.044   -1.334   -0.205   H1   471      YgA   0.000000
  9812   C6   -0.354   -1.583   -1.828   Cg   471      YgA   0.276000
  9813  H61   -1.391   -1.326   -2.047   H1   471      YgA   0.000000
  9814  H62    0.258   -1.261   -2.671   H1   471      YgA   0.000000
  9815   O6   -0.234   -3.017   -1.712   Oh   471      YgA  -0.682000
  9816  H6O    0.683   -3.277   -1.828   Ho   471      YgA   0.418000
  9817   C4    0.325    0.629   -0.712   Cg   471      YgA   0.254000
  9818   H4   -0.574    1.077   -1.141   H1   471      YgA   0.000000
  9819   O4    1.432    0.834   -1.628   Os   471      YgA  -0.468000
  9820   C3    0.652    1.318    0.634   Cg   471      YgA   0.286000
  9821   H3    1.623    0.973    0.996   H1   471      YgA   0.000000
  9822   O3    0.720    2.752    0.416   Oh   471      YgA  -0.699000
  9823  H3O    0.688    3.178    1.283   Ho   471      YgA   0.427000
  9824   C2   -0.421    1.035    1.707   Cg   471      YgA   0.246000
  9825   H2   -1.353    1.506    1.393   H1   471      YgA   0.000000
  9826   O2   -0.026    1.637    2.983   Os   471      YgA  -0.470000
  9827   C1   -1.395   -0.195    1.379   Cg   472      YgB   0.384000
  9828   H1   -0.821   -0.595    2.216   H2   472      YgB   0.000000
  9829   C2   -1.044    1.298    1.124   Cg   472      YgB   0.310000
  9830   H2   -1.742    1.712    0.393   H1   472      YgB   0.000000
  9831   C3    0.399    1.427    0.586   Cg   472      YgB   0.284000
  9832   H3    1.100    1.166    1.381   H1   472      YgB   0.000000
  9833   C4    0.651    0.507   -0.633   Cg   472      YgB   0.276000
  9834   H4    0.057    0.857   -1.480   H1   472      YgB   0.000000
  9835   C5    0.278   -0.957   -0.318   Cg   472      YgB   0.225000
  9836   H5    0.935   -1.331    0.470   H1   472      YgB   0.000000
  9837   C6    0.410   -1.877   -1.547   Cg   472      YgB   0.282000
  9838  H61    1.440   -1.896   -1.903   H1   472      YgB   0.000000
  9839  H62   -0.227   -1.519   -2.357   H1   472      YgB   0.000000
  9840   O6    0.014   -3.217   -1.198   Oh   472      YgB  -0.688000
  9841  H6O   -0.862   -3.178   -0.802   Ho   472      YgB   0.424000
  9842   O5   -1.130   -1.001    0.184   Os   472      YgB  -0.471000
  9843   O4    2.052    0.568   -0.991   Os   472      YgB  -0.468000
  9844   O3    0.641    2.805    0.192   Oh   472      YgB  -0.709000
  9845  H3O    0.401    3.367    0.941   Ho   472      YgB   0.432000
  9846   O2   -1.158    2.057    2.363   Os   472      YgB  -0.475000
  9847   C1   -0.421   -1.039   -1.739   Cg   473      YhA   0.394000
  9848   H1    0.015   -1.414   -2.665   H2   473      YhA   0.000000
  9849   O5    0.418   -1.484   -0.613   Os   473      YhA  -0.461000
  9850   C5    0.138   -0.917    0.732   Cg   473      YhA   0.279000
  9851   H5   -0.836   -1.286    1.060   H1   473      YhA   0.000000
  9852   C6    1.207   -1.471    1.676   Cg   473      YhA   0.023000
  9853  H61    2.207   -1.142    1.389   Hc   473      YhA   0.000000
  9854  H62    1.208   -2.562    1.677   Hc   473      YhA   0.000000
  9855  H63    1.038   -1.150    2.703   Hc   473      YhA   0.000000
  9856   C4    0.094    0.631    0.674   Cg   473      YhA   0.187000
  9857   H4    1.093    1.021    0.473   H1   473      YhA   0.000000
  9858   O4   -0.364    1.152    1.954   Os   473      YhA  -0.433000
  9859   C3   -0.881    1.099   -0.429   Cg   473      YhA   0.236000
  9860   H3   -1.891    0.779   -0.166   H1   473      YhA   0.000000
  9861   O3   -0.880    2.549   -0.500   Oh   473      YhA  -0.649000
  9862  H3O   -1.047    2.872    0.394   Ho   473      YhA   0.425000
  9863   C2   -0.529    0.510   -1.813   Cg   473      YhA   0.248000
  9864   H2   -1.302    0.787   -2.532   H1   473      YhA   0.000000
  9865   O2    0.734    1.065   -2.277   Os   473      YhA  -0.443000
  9866   C1   -2.072    0.007   -0.183   Cg   474      YhB   0.381000
  9867   H1   -2.185    1.031   -0.541   H2   474      YhB   0.000000
  9868   C2   -1.317   -0.830   -1.235   Cg   474      YhB   0.243000
  9869   H2   -1.864   -0.832   -2.179   H1   474      YhB   0.000000
  9870   C3    0.089   -0.229   -1.438   Cg   474      YhB   0.182000
  9871   H3   -0.029    0.763   -1.881   H1   474      YhB   0.000000
  9872   C4    0.877   -0.101   -0.118   Cg   474      YhB   0.388000
  9873   H4    1.173   -1.090    0.237   H1   474      YhB   0.000000
  9874   C5    0.063    0.626    0.979   Cg   474      YhB   0.172000
  9875   H5   -0.050    1.677    0.706   H1   474      YhB   0.000000
  9876  C6M    0.685    0.551    2.375   Cg   474      YhB   0.039000
  9877  H3M    1.670    1.020    2.399   Hc   474      YhB   0.000000
  9878  H2M    0.804   -0.481    2.709   Hc   474      YhB   0.000000
  9879  H1M    0.067    1.065    3.112   Hc   474      YhB   0.000000
  9880   O5   -1.292    0.031    1.073   Os   474      YhB  -0.427000
  9881   O4    2.056    0.682   -0.376   Os   474      YhB  -0.490000
  9882   O3    0.824   -1.046   -2.368   Oh   474      YhB  -0.665000
  9883  H3O    1.690   -0.659   -2.518   Ho   474      YhB   0.418000
  9884   O2   -1.192   -2.187   -0.753   Os   474      YhB  -0.435000
  9885   C1   -0.524   -1.627    0.989   Cg   475      YkA   0.473000
  9886   H1   -1.314   -2.160    1.517   H2   475      YkA   0.000000
  9887   O5   -1.125   -0.927   -0.170   Os   475      YkA  -0.540000
  9888   C5   -0.248   -0.004   -0.942   Cg   475      YkA   0.301000
  9889   H5    0.583   -0.586   -1.346   H1   475      YkA   0.000000
  9890   C6   -1.044    0.557   -2.129   Cg   475      YkA   0.287000
  9891  H61   -1.958    1.046   -1.789   H1   475      YkA   0.000000
  9892  H62   -0.444    1.285   -2.675   H1   475      YkA   0.000000
  9893   O6   -1.382   -0.521   -3.012   Oh   475      YkA  -0.691000
  9894  H6O   -0.579   -0.945   -3.323   Ho   475      YkA   0.422000
  9895   C4    0.353    1.066    0.003   Cg   475      YkA   0.196000
  9896   H4    1.082    1.664   -0.546   H1   475      YkA   0.000000
  9897   O4   -0.693    1.947    0.453   Os   475      YkA  -0.486000
  9898   C3    1.015    0.461    1.256   Cg   475      YkA   0.354000
  9899   H3    1.271    1.250    1.964   H1   475      YkA   0.000000
  9900   O3    2.236   -0.172    0.829   Oh   475      YkA  -0.744000
  9901  H3O    2.683   -0.550    1.591   Ho   475      YkA   0.436000
  9902   C2    0.088   -0.571    1.934   Cg   475      YkA   0.281000
  9903   H2   -0.750   -0.011    2.353   H1   475      YkA   0.000000
  9904   O2    0.750   -1.202    3.045   Os   475      YkA  -0.483000
  9905   C1   -1.410   -0.219    1.303   Cg   476      YkB   0.449000
  9906   H1   -0.828   -0.650    2.119   H2   476      YkB   0.000000
  9907   C2   -1.106    1.298    1.133   Cg   476      YkB   0.308000
  9908   H2   -1.797    1.717    0.400   H1   476      YkB   0.000000
  9909   C3    0.339    1.505    0.620   Cg   476      YkB   0.253000
  9910   H3    0.500    2.565    0.418   H1   476      YkB   0.000000
  9911   C4    0.619    0.691   -0.663   Cg   476      YkB   0.217000
  9912   H4    1.677    0.767   -0.917   H1   476      YkB   0.000000
  9913   C5    0.256   -0.806   -0.466   Cg   476      YkB   0.303000
  9914   H5    0.943   -1.221    0.275   H1   476      YkB   0.000000
  9915   C6    0.404   -1.638   -1.757   Cg   476      YkB   0.259000
  9916  H61    1.403   -1.509   -2.173   H1   476      YkB   0.000000
  9917  H62   -0.322   -1.316   -2.504   H1   476      YkB   0.000000
  9918   O6    0.197   -3.035   -1.474   Oh   476      YkB  -0.670000
  9919  H6O   -0.677   -3.138   -1.085   Ho   476      YkB   0.416000
  9920   O5   -1.138   -0.954    0.065   Os   476      YkB  -0.514000
  9921   O4   -0.141    1.270   -1.761   Os   476      YkB  -0.469000
  9922   O3    1.296    1.092    1.631   Oh   476      YkB  -0.710000
  9923  H3O    1.065    1.553    2.450   Ho   476      YkB   0.442000
  9924   O2   -1.284    2.030    2.386   Os   476      YkB  -0.478000
  9925   C1   -0.557   -1.683    0.914   Cg   477      YlA   0.465000
  9926   H1   -1.371   -2.198    1.423   H2   477      YlA   0.000000
  9927   O5   -1.110   -0.975   -0.264   Os   477      YlA  -0.527000
  9928   C5   -0.181   -0.085   -1.017   Cg   477      YlA   0.216000
  9929   H5    0.655   -0.687   -1.378   H1   477      YlA   0.000000
  9930   C6   -0.916    0.476   -2.243   Cg   477      YlA   0.308000
  9931  H61   -1.833    0.988   -1.947   H1   477      YlA   0.000000
  9932  H62   -0.279    1.185   -2.772   H1   477      YlA   0.000000
  9933   O6   -1.240   -0.607   -3.124   Oh   477      YlA  -0.684000
  9934  H6O   -0.433   -1.051   -3.396   Ho   477      YlA   0.418000
  9935   C4    0.393    0.981   -0.058   Cg   477      YlA   0.204000
  9936   H4    1.133    1.587   -0.583   H1   477      YlA   0.000000
  9937   O4   -0.689    1.837    0.371   Os   477      YlA  -0.431000
  9938   C3    1.044    0.307    1.168   Cg   477      YlA   0.253000
  9939   H3    1.916   -0.256    0.833   H1   477      YlA   0.000000
  9940   O3    1.494    1.324    2.083   Oh   477      YlA  -0.701000
  9941  H3O    1.909    0.910    2.843   Ho   477      YlA   0.433000
  9942   C2    0.067   -0.648    1.880   Cg   477      YlA   0.339000
  9943   H2   -0.744   -0.065    2.319   H1   477      YlA   0.000000
  9944   O2    0.742   -1.338    2.949   Os   477      YlA  -0.487000
  9945   C1   -1.392   -0.218    1.382   Cg   478      YlB   0.374000
  9946   H1   -0.821   -0.616    2.222   H2   478      YlB   0.000000
  9947   C2   -1.041    1.282    1.147   Cg   478      YlB   0.357000
  9948   H2   -1.743    1.714    0.431   H1   478      YlB   0.000000
  9949   C3    0.403    1.412    0.608   Cg   478      YlB   0.259000
  9950   H3    1.097    1.089    1.386   H1   478      YlB   0.000000
  9951   C4    0.642    0.536   -0.643   Cg   478      YlB   0.203000
  9952   H4    1.692    0.600   -0.933   H1   478      YlB   0.000000
  9953   C5    0.283   -0.938   -0.348   Cg   478      YlB   0.140000
  9954   H5    0.968   -1.298    0.422   H1   478      YlB   0.000000
  9955   C6    0.426   -1.853   -1.577   Cg   478      YlB   0.319000
  9956  H61    1.423   -1.757   -2.007   H1   478      YlB   0.000000
  9957  H62   -0.308   -1.594   -2.342   H1   478      YlB   0.000000
  9958   O6    0.222   -3.217   -1.172   Oh   478      YlB  -0.693000
  9959  H6O   -0.652   -3.279   -0.779   Ho   478      YlB   0.419000
  9960   O5   -1.109   -1.030    0.191   Os   478      YlB  -0.402000
  9961   O4   -0.168    1.023   -1.742   Os   478      YlB  -0.421000
  9962   O3    0.711    2.797    0.285   Oh   478      YlB  -0.694000
  9963  H3O    0.507    3.329    1.066   Ho   478      YlB   0.433000
  9964   O2   -1.139    2.017    2.404   Os   478      YlB  -0.488000
  9965   C1   -0.851   -0.529    1.799   Cg   479      YmA   0.433000
  9966   H1   -1.784   -0.709    2.333   H2   479      YmA   0.000000
  9967   O5   -0.933   -1.165    0.477   Os   479      YmA  -0.507000
  9968   C5    0.141   -0.870   -0.523   Cg   479      YmA   0.276000
  9969   H5    1.070   -1.316   -0.162   H1   479      YmA   0.000000
  9970   C6   -0.223   -1.522   -1.875   Cg   479      YmA   0.266000
  9971  H61   -1.242   -1.254   -2.157   H1   479      YmA   0.000000
  9972  H62    0.446   -1.173   -2.661   H1   479      YmA   0.000000
  9973   O6   -0.112   -2.960   -1.801   Oh   479      YmA  -0.688000
  9974  H6O    0.812   -3.216   -1.774   Ho   479      YmA   0.422000
  9975   C4    0.354    0.656   -0.651   Cg   479      YmA   0.326000
  9976   H4   -0.512    1.114   -1.130   H1   479      YmA   0.000000
  9977   O4    1.527    0.898   -1.472   Os   479      YmA  -0.489000
  9978   C3    0.583    1.292    0.743   Cg   479      YmA   0.252000
  9979   H3    1.495    0.873    1.173   H1   479      YmA   0.000000
  9980   O3    0.776    2.736    0.628   Oh   479      YmA  -0.696000
  9981  H3O    1.194    3.073    1.429   Ho   479      YmA   0.431000
  9982   C2   -0.593    1.001    1.702   Cg   479      YmA   0.245000
  9983   H2   -0.353    1.391    2.692   H1   479      YmA   0.000000
  9984   O2   -1.794    1.681    1.229   Os   479      YmA  -0.465000
  9985   C1   -1.434   -0.237    1.439   Cg   480      YmB   0.314000
  9986   H1   -0.800   -0.538    2.274   H2   480      YmB   0.000000
  9987   C2   -1.209    1.265    1.111   Cg   480      YmB   0.241000
  9988   H2   -1.428    1.873    1.990   H1   480      YmB   0.000000
  9989   C3    0.275    1.431    0.708   Cg   480      YmB   0.263000
  9990   H3    0.890    1.082    1.540   H1   480      YmB   0.000000
  9991   C4    0.601    0.571   -0.544   Cg   480      YmB   0.349000
  9992   H4    0.026    0.926   -1.400   H1   480      YmB   0.000000
  9993   C5    0.277   -0.920   -0.274   Cg   480      YmB   0.206000
  9994   H5    0.976   -1.301    0.473   H1   480      YmB   0.000000
  9995   C6    0.406   -1.774   -1.548   Cg   480      YmB   0.273000
  9996  H61    1.419   -1.717   -1.946   H1   480      YmB   0.000000
  9997  H62   -0.285   -1.418   -2.314   H1   480      YmB   0.000000
  9998   O6    0.104   -3.149   -1.248   Oh   480      YmB  -0.680000
  9999  H6O   -0.773   -3.188   -0.853   Ho   480      YmB   0.419000
 10000   O5   -1.109   -1.074    0.275   Os   480      YmB  -0.393000
 10001   O4    2.014    0.683   -0.857   Os   480      YmB  -0.497000
 10002   O3    0.600    2.837    0.504   Oh   480      YmB  -0.692000
 10003  H3O    1.541    2.975    0.651   Ho   480      YmB   0.430000
 10004   O2   -2.090    1.670    0.021   Os   480      YmB  -0.427000
 10005   C1   -0.462   -1.739    0.995   Cg   481      YnA   0.478000
 10006   H1   -1.252   -2.323    1.467   H2   481      YnA   0.000000
 10007   O5   -1.022   -1.078   -0.205   Os   481      YnA  -0.611000
 10008   C5   -0.195   -0.057   -0.906   Cg   481      YnA   0.404000
 10009   H5    0.693   -0.547   -1.311   H1   481      YnA   0.000000
 10010   C6   -1.031    0.503   -2.065   Cg   481      YnA   0.280000
 10011  H61   -1.974    0.910   -1.699   H1   481      YnA   0.000000
 10012  H62   -0.489    1.297   -2.578   H1   481      YnA   0.000000
 10013   O6   -1.298   -0.551   -3.001   Oh   481      YnA  -0.663000
 10014  H6O   -0.468   -0.899   -3.336   Ho   481      YnA   0.396000
 10015   C4    0.241    1.012    0.120   Cg   481      YnA   0.167000
 10016   H4   -0.645    1.557    0.448   H1   481      YnA   0.000000
 10017   O4    1.127    1.955   -0.512   Os   481      YnA  -0.483000
 10018   C3    0.932    0.427    1.369   Cg   481      YnA   0.330000
 10019   H3    1.117    1.217    2.098   H1   481      YnA   0.000000
 10020   O3    2.194   -0.171    0.997   Oh   481      YnA  -0.714000
 10021  H3O    2.784    0.510    0.666   Ho   481      YnA   0.441000
 10022   C2    0.012   -0.648    1.981   Cg   481      YnA   0.228000
 10023   H2   -0.885   -0.134    2.331   H1   481      YnA   0.000000
 10024   O2    0.623   -1.241    3.140   Os   481      YnA  -0.447000
 10025   C1   -1.410   -0.191    1.316   Cg   482      YnB   0.422000
 10026   H1   -0.828   -0.596    2.146   H2   482      YnB   0.000000
 10027   C2   -1.106    1.322    1.101   Cg   482      YnB   0.301000
 10028   H2   -1.807    1.722    0.364   H1   482      YnB   0.000000
 10029   C3    0.327    1.524    0.563   Cg   482      YnB   0.234000
 10030   H3    0.486    2.581    0.341   H1   482      YnB   0.000000
 10031   C4    0.532    0.685   -0.719   Cg   482      YnB   0.286000
 10032   H4   -0.165    1.037   -1.482   H1   482      YnB   0.000000
 10033   C5    0.263   -0.816   -0.458   Cg   482      YnB   0.198000
 10034   H5    0.973   -1.185    0.283   H1   482      YnB   0.000000
 10035   C6    0.402   -1.676   -1.729   Cg   482      YnB   0.313000
 10036  H61    1.416   -1.615   -2.126   H1   482      YnB   0.000000
 10037  H62   -0.292   -1.334   -2.496   H1   482      YnB   0.000000
 10038   O6    0.109   -3.046   -1.406   Oh   482      YnB  -0.689000
 10039  H6O   -0.706   -3.059   -0.896   Ho   482      YnB   0.418000
 10040   O5   -1.123   -0.963    0.098   Os   482      YnB  -0.507000
 10041   O4    1.875    0.884   -1.220   Os   482      YnB  -0.471000
 10042   O3    1.292    1.115    1.577   Oh   482      YnB  -0.615000
 10043  H3O    1.029    1.527    2.412   Ho   482      YnB   0.389000
 10044   O2   -1.267    2.085    2.333   Os   482      YnB  -0.473000
 10045   C1   -0.618   -0.815    1.694   Cg   483      YoA   0.305000
 10046   H1   -1.502   -0.993    2.306   H2   483      YoA   0.000000
 10047   O5   -0.793   -1.504    0.406   Os   483      YoA  -0.424000
 10048   C5    0.182   -1.190   -0.710   Cg   483      YoA   0.054000
 10049   H5    1.168   -1.544   -0.402   H1   483      YoA   0.000000
 10050   C6   -0.129   -1.812   -2.113    C   483      YoA   0.896000
 10051  O6B   -1.290   -1.659   -2.566   O2   483      YoA  -0.822000
 10052  O6A    0.834   -2.332   -2.721   O2   483      YoA  -0.822000
 10053   C4    0.243    0.335   -0.911   Cg   483      YoA   0.267000
 10054   H4    0.984    0.574   -1.675   H1   483      YoA   0.000000
 10055   O4   -1.067    0.770   -1.372   Os   483      YoA  -0.469000
 10056   C3    0.636    1.024    0.422   Cg   483      YoA   0.251000
 10057   H3    1.590    0.606    0.750   H1   483      YoA   0.000000
 10058   O3    0.844    2.459    0.252   Oh   483      YoA  -0.725000
 10059  H3O    0.726    2.870    1.115   Ho   483      YoA   0.416000
 10060   C2   -0.422    0.726    1.513   Cg   483      YoA   0.413000
 10061   H2   -1.374    1.173    1.224   H1   483      YoA   0.000000
 10062   O2   -0.013    1.314    2.789   Os   483      YoA  -0.534000
 10063   C1   -1.481   -0.544    1.333   Cg   484      YoB   0.301000
 10064   H1   -0.898   -0.925    2.172   H2   484      YoB   0.000000
 10065   C2   -1.173    0.966    1.098   Cg   484      YoB   0.383000
 10066   H2   -1.917    1.392    0.424   H1   484      YoB   0.000000
 10067   C3    0.244    1.155    0.491   Cg   484      YoB   0.259000
 10068   H3    0.980    0.862    1.243   H1   484      YoB   0.000000
 10069   C4    0.455    0.268   -0.759   Cg   484      YoB   0.260000
 10070   H4    1.483    0.395   -1.104   H1   484      YoB   0.000000
 10071   C5    0.194   -1.212   -0.431   Cg   484      YoB   0.049000
 10072   H5    0.893   -1.495    0.359   H1   484      YoB   0.000000
 10073   C6    0.589   -2.121   -1.654    C   484      YoB   0.838000
 10074  O6A   -0.182   -3.051   -1.987   O2   484      YoB  -0.794000
 10075  O6B    1.722   -1.914   -2.156   O2   484      YoB  -0.794000
 10076   O5   -1.188   -1.354    0.152   Os   484      YoB  -0.414000
 10077   O4   -0.441    0.699   -1.814   Os   484      YoB  -0.453000
 10078   O3    0.517    2.549    0.128   Oh   484      YoB  -0.708000
 10079  H3O    1.467    2.690    0.113   Ho   484      YoB   0.404000
 10080   O2   -1.264    1.640    2.390   Os   484      YoB  -0.525000
 10081   C1   -0.543   -1.007   -1.702   Cg   485      YqA   0.465000
 10082   H1   -0.216   -1.396   -2.666   H1   485      YqA   0.000000
 10083   O5    0.403   -1.453   -0.673   Os   485      YqA  -0.559000
 10084   C5    0.202   -0.936    0.707   Cg   485      YqA   0.234000
 10085   H5   -0.746   -1.325    1.084   H1   485      YqA   0.000000
 10086   C6    1.331   -1.510    1.567   Cg   485      YqA   0.060000
 10087  H61    1.341   -2.600    1.532   Hc   485      YqA   0.000000
 10088  H62    1.221   -1.224    2.614   Hc   485      YqA   0.000000
 10089  H63    2.310   -1.162    1.233   Hc   485      YqA   0.000000
 10090   C4    0.141    0.608    0.693   Cg   485      YqA   0.208000
 10091   H4    1.132    1.002    0.458   H1   485      YqA   0.000000
 10092   O4   -0.244    1.077    2.017   Os   485      YqA  -0.455000
 10093   C3   -0.876    1.136   -0.350   Cg   485      YqA   0.312000
 10094   H3   -1.889    0.886   -0.030   H1   485      YqA   0.000000
 10095   O3   -0.744    2.581   -0.385   Oh   485      YqA  -0.697000
 10096  H3O   -0.887    2.907    0.510   Ho   485      YqA   0.424000
 10097   C2   -0.625    0.545   -1.761   Cg   485      YqA   0.281000
 10098   H2    0.336    0.914   -2.122   H1   485      YqA   0.000000
 10099   O2   -1.648    0.956   -2.724   Os   485      YqA  -0.467000
 10100   C1   -1.309   -0.500    1.410   Cg   486      YqB   0.391000
 10101   H1   -0.656   -0.916    2.179   H1   486      YqB   0.000000
 10102   C2   -1.048    1.019    1.212   Cg   486      YqB   0.323000
 10103   H2   -1.809    1.431    0.546   H1   486      YqB   0.000000
 10104   C3    0.352    1.235    0.592   Cg   486      YqB   0.300000
 10105   H3    1.110    0.969    1.331   H1   486      YqB   0.000000
 10106   C4    0.574    0.387   -0.685   Cg   486      YqB   0.250000
 10107   H4   -0.066    0.765   -1.486   H1   486      YqB   0.000000
 10108   C5    0.250   -1.106   -0.436   Cg   486      YqB   0.271000
 10109   H5    0.970   -1.517    0.275   H1   486      YqB   0.000000
 10110   C6    0.268   -1.968   -1.700   Cg   486      YqB   0.048000
 10111  H61    0.008   -3.004   -1.476   Hc   486      YqB   0.000000
 10112  H62    1.255   -1.979   -2.163   Hc   486      YqB   0.000000
 10113  H63   -0.441   -1.606   -2.445   Hc   486      YqB   0.000000
 10114   O5   -1.108   -1.222    0.156   Os   486      YqB  -0.535000
 10115   O4    1.960    0.504   -1.099   Os   486      YqB  -0.486000
 10116   O3    0.512    2.640    0.254   Oh   486      YqB  -0.689000
 10117  H3O    0.295    3.153    1.043   Ho   486      YqB   0.420000
 10118   O2   -1.117    1.717    2.492   Os   486      YqB  -0.487000
 10119   C1   -1.061   -1.513    0.269   Cg   487      YrA   0.488000
 10120   H1   -2.003   -1.920    0.636   H2   487      YrA   0.000000
 10121   O5   -1.310   -0.862   -1.041   Os   487      YrA  -0.561000
 10122   C5   -0.218   -0.050   -1.628   Cg   487      YrA   0.377000
 10123  H5A    0.615   -0.704   -1.890   H1   487      YrA   0.000000
 10124  H5E   -0.578    0.426   -2.540   H1   487      YrA   0.000000
 10125   C4    0.226    1.013   -0.610   Cg   487      YrA   0.122000
 10126   H4   -0.600    1.710   -0.461   H1   487      YrA   0.000000
 10127   O4    1.329    1.752   -1.162   Os   487      YrA  -0.438000
 10128   C3    0.617    0.422    0.759   Cg   487      YrA   0.345000
 10129   H3    0.824    1.225    1.469   H1   487      YrA   0.000000
 10130   O3    1.800   -0.395    0.619   Oh   487      YrA  -0.737000
 10131  H3O    2.535    0.152    0.334   Ho   487      YrA   0.443000
 10132   C2   -0.554   -0.444    1.266   Cg   487      YrA   0.253000
 10133   H2   -1.391    0.233    1.447   H1   487      YrA   0.000000
 10134   O2   -0.232   -1.043    2.533   Os   487      YrA  -0.486000
 10135   C1   -1.532   -0.651    0.850   Cg   488      YrB   0.481000
 10136   H1   -1.026   -1.050    1.729   H2   488      YrB   0.000000
 10137   C2   -1.161    0.846    0.599   Cg   488      YrB   0.385000
 10138   H2   -1.746    1.203   -0.252   H1   488      YrB   0.000000
 10139   C3    0.340    0.946    0.225   Cg   488      YrB   0.203000
 10140   H3    0.600    1.986    0.022   H1   488      YrB   0.000000
 10141   C4    0.592    0.089   -1.040   Cg   488      YrB   0.236000
 10142   H4   -0.019    0.476   -1.856   H1   488      YrB   0.000000
 10143   C5    0.203   -1.389   -0.792   Cg   488      YrB   0.335000
 10144  H5A    0.854   -1.840   -0.043   H1   488      YrB   0.000000
 10145  H5E    0.304   -1.961   -1.714   H1   488      YrB   0.000000
 10146   O5   -1.209   -1.471   -0.327   Os   488      YrB  -0.576000
 10147   O4    1.984    0.188   -1.445   Os   488      YrB  -0.478000
 10148   O3    1.188    0.448    1.304   Oh   488      YrB  -0.696000
 10149  H3O    2.108    0.465    1.014   Ho   488      YrB   0.428000
 10150   O2   -1.480    1.716    1.726   Os   488      YrB  -0.512000
 10151   C1   -0.546   -1.689    0.930   Cg   489      YtA   0.456000
 10152   H1   -1.376   -2.199    1.422   H2   489      YtA   0.000000
 10153   O5   -1.072   -0.998   -0.274   Os   489      YtA  -0.480000
 10154   C5   -0.149   -0.095   -1.014   Cg   489      YtA   0.157000
 10155   H5    0.707   -0.685   -1.350   H1   489      YtA   0.000000
 10156   C6   -0.869    0.436   -2.261   Cg   489      YtA   0.304000
 10157  H61   -1.804    0.929   -1.990   H1   489      YtA   0.000000
 10158  H62   -0.238    1.154   -2.784   H1   489      YtA   0.000000
 10159   O6   -1.149   -0.663   -3.139   Oh   489      YtA  -0.669000
 10160  H6O   -0.326   -1.090   -3.389   Ho   489      YtA   0.401000
 10161   C4    0.385    0.994   -0.059   Cg   489      YtA   0.434000
 10162   H4    1.143    1.589   -0.570   H1   489      YtA   0.000000
 10163   O4   -0.703    1.862    0.321   Os   489      YtA  -0.508000
 10164   C3    1.002    0.333    1.192   Cg   489      YtA   0.124000
 10165   H3    1.878   -0.223    0.853   H1   489      YtA   0.000000
 10166   O3    1.481    1.331    2.111   Oh   489      YtA  -0.687000
 10167  H3O    1.908    0.902    2.856   Ho   489      YtA   0.442000
 10168   C2    0.085   -0.681    1.912   Cg   489      YtA   0.245000
 10169   H2    0.652   -1.209    2.680   H1   489      YtA   0.000000
 10170   O2   -1.008    0.002    2.554   Os   489      YtA  -0.413000
 10171   C1   -1.274   -1.103    1.078   Cg   490      YtB   0.306000
 10172   H1   -0.724   -2.045    1.070   H2   490      YtB   0.000000
 10173   C2   -0.548   -0.098    1.998   Cg   490      YtB   0.340000
 10174   H2   -0.431   -0.523    2.996   H1   490      YtB   0.000000
 10175   C3    0.839    0.223    1.396   Cg   490      YtB   0.174000
 10176   H3    1.425   -0.695    1.449   H1   490      YtB   0.000000
 10177   C4    0.819    0.657   -0.088   Cg   490      YtB   0.314000
 10178   H4    1.842    0.715   -0.465   H1   490      YtB   0.000000
 10179   C5    0.016   -0.361   -0.932   Cg   490      YtB   0.031000
 10180   H5    0.561   -1.306   -0.910   H1   490      YtB   0.000000
 10181   C6   -0.185    0.027   -2.404   Cg   490      YtB   0.349000
 10182  H61    0.775    0.253   -2.869   H1   490      YtB   0.000000
 10183  H62   -0.828    0.904   -2.491   H1   490      YtB   0.000000
 10184   O6   -0.790   -1.075   -3.094   Oh   490      YtB  -0.666000
 10185  H6O   -1.633   -1.283   -2.686   Ho   490      YtB   0.406000
 10186   O5   -1.315   -0.580   -0.307   Os   490      YtB  -0.354000
 10187   O4    0.209    1.958   -0.219   Os   490      YtB  -0.407000
 10188   O3    1.528    1.196    2.202   Oh   490      YtB  -0.678000
 10189  H3O    1.044    2.025    2.185   Ho   490      YtB   0.425000
 10190   O2   -1.332    1.111    2.092   Os   490      YtB  -0.434000
 10191   C1   -1.714   -1.018    0.103   Cg   491      YuA   0.363000
 10192   H1   -1.573   -1.513   -0.858   H2   491      YuA   0.000000
 10193   O5   -0.676   -1.461    1.035   Os   491      YuA  -0.515000
 10194   C5    0.730   -1.060    0.687   Cg   491      YuA   0.232000
 10195   H5    1.366   -1.411    1.501   H1   491      YuA   0.000000
 10196   C6    1.380   -1.643   -0.643    C   491      YuA   0.697000
 10197  O6B    2.535   -1.249   -0.935   O2   491      YuA  -0.757000
 10198  O6A    0.693   -2.413   -1.351   O2   491      YuA  -0.757000
 10199   C4    0.769    0.481    0.699   Cg   491      YuA   0.223000
 10200   H4    0.506    0.823    1.702   H1   491      YuA   0.000000
 10201   O4    2.113    0.970    0.400   Os   491      YuA  -0.508000
 10202   C3   -0.266    1.054   -0.304   Cg   491      YuA   0.417000
 10203   H3    0.045    0.786   -1.316   H1   491      YuA   0.000000
 10204   O3   -0.224    2.502   -0.184   Oh   491      YuA  -0.771000
 10205  H3O    0.713    2.726   -0.120   Ho   491      YuA   0.417000
 10206   C2   -1.712    0.532   -0.069   Cg   491      YuA   0.259000
 10207   H2   -2.105    0.985    0.843   H1   491      YuA   0.000000
 10208   O2   -2.581    0.909   -1.191   Os   491      YuA  -0.494000
 10209   C1    0.579   -1.154    1.495   Cg   492      YuB   0.278000
 10210   H1    1.320   -1.623    2.143   H2   492      YuB   0.000000
 10211   C2    0.841    0.380    1.452   Cg   492      YuB   0.289000
 10212   H2    1.879    0.520    1.148   H1   492      YuB   0.000000
 10213   C3   -0.054    1.084    0.408   Cg   492      YuB   0.286000
 10214   H3   -1.104    0.999    0.693   H1   492      YuB   0.000000
 10215   C4    0.170    0.444   -0.988   Cg   492      YuB   0.308000
 10216   H4    1.215    0.598   -1.264   H1   492      YuB   0.000000
 10217   C5   -0.090   -1.080   -0.975   Cg   492      YuB   0.194000
 10218   H5    0.296   -1.482   -1.913   H1   492      YuB   0.000000
 10219   C6   -1.636   -1.408   -0.992    C   492      YuB   0.750000
 10220  O6A   -2.066   -2.213   -0.135   O2   492      YuB  -0.783000
 10221  O6B   -2.348   -0.819   -1.841   O2   492      YuB  -0.783000
 10222   O5    0.732   -1.702    0.131   Os   492      YuB  -0.430000
 10223   O4   -0.644    1.121   -1.988   Os   492      YuB  -0.517000
 10224   O3    0.303    2.498    0.345   Oh   492      YuB  -0.755000
 10225  H3O   -0.090    2.828   -0.476   Ho   492      YuB   0.421000
 10226   O2    0.699    1.008    2.756   Os   492      YuB  -0.452000
 10227   C1   -0.393   -1.223   -1.312   Cg   493      YxA   0.482000
 10228   H1   -0.178   -1.540   -2.332   H2   493      YxA   0.000000
 10229   O5    0.614   -1.795   -0.417   Os   493      YxA  -0.588000
 10230   C5    0.592   -1.353    1.005   Cg   493      YxA   0.335000
 10231  H5A   -0.310   -1.739    1.480   H1   493      YxA   0.000000
 10232  H5E    1.451   -1.782    1.521   H1   493      YxA   0.000000
 10233   C4    0.630    0.182    1.106   Cg   493      YxA   0.247000
 10234   H4    1.608    0.535    0.776   H1   493      YxA   0.000000
 10235   O4    0.442    0.559    2.497   Os   493      YxA  -0.494000
 10236   C3   -0.474    0.814    0.226   Cg   493      YxA   0.359000
 10237   H3   -1.456    0.577    0.641   H1   493      YxA   0.000000
 10238   O3   -0.302    2.255    0.230   Oh   493      YxA  -0.712000
 10239  H3O   -0.837    2.610   -0.492   Ho   493      YxA   0.421000
 10240   C2   -0.404    0.327   -1.236   Cg   493      YxA   0.197000
 10241   H2    0.527    0.687   -1.676   H1   493      YxA   0.000000
 10242   O2   -1.511    0.883   -2.017   Os   493      YxA  -0.441000
 10243   C1   -1.267   -0.947    1.007   Cg   494      YxB   0.248000
 10244   H1   -0.624   -1.338    1.797   H2   494      YxB   0.000000
 10245   C2   -1.012    0.574    0.792   Cg   494      YxB   0.425000
 10246   H2   -1.780    0.979    0.130   H1   494      YxB   0.000000
 10247   C3    0.385    0.824    0.179   Cg   494      YxB   0.228000
 10248   H3    1.148    0.579    0.920   H1   494      YxB   0.000000
 10249   C4    0.611   -0.042   -1.081   Cg   494      YxB   0.286000
 10250   H4   -0.050    0.294   -1.881   H1   494      YxB   0.000000
 10251   C5    0.342   -1.533   -0.799   Cg   494      YxB   0.303000
 10252  H5A    1.077   -1.929   -0.096   H1   494      YxB   0.000000
 10253  H5E    0.410   -2.109   -1.722   H1   494      YxB   0.000000
 10254   O5   -1.015   -1.698   -0.226   Os   494      YxB  -0.447000
 10255   O4    1.983    0.101   -1.518   Os   494      YxB  -0.487000
 10256   O3    0.527    2.230   -0.182   Oh   494      YxB  -0.682000
 10257  H3O    0.352    2.762    0.606   Ho   494      YxB   0.427000
 10258   O2   -1.088    1.254    2.073   Os   494      YxB  -0.495000
 10259   C1   -0.675   -0.837    1.655   Cg   495      YzA   0.398000
 10260   H1   -1.532   -1.035    2.298   H2   495      YzA   0.000000
 10261   O5   -0.932   -1.414    0.341   Os   495      YzA  -0.544000
 10262   C5    0.071   -1.152   -0.764   Cg   495      YzA   0.187000
 10263   H5    1.005   -1.608   -0.430   H1   495      YzA   0.000000
 10264   C6   -0.200   -1.824   -2.187    C   495      YzA   0.798000
 10265  O6B   -1.025   -2.763   -2.255   O2   495      YzA  -0.787000
 10266  O6A    0.478   -1.412   -3.165   O2   495      YzA  -0.787000
 10267   C4    0.339    0.369   -0.892   Cg   495      YzA   0.193000
 10268   H4   -0.525    0.834   -1.369   H1   495      YzA   0.000000
 10269   O4    1.495    0.535   -1.755   Os   495      YzA  -0.454000
 10270   C3    0.604    1.061    0.476   Cg   495      YzA   0.300000
 10271   H3    1.591    0.768    0.837   H1   495      YzA   0.000000
 10272   O3    0.577    2.511    0.324   Oh   495      YzA  -0.743000
 10273  H3O    0.629    2.888    1.208   Ho   495      YzA   0.439000
 10274   C2   -0.446    0.694    1.551   Cg   495      YzA   0.326000
 10275   H2   -1.398    1.149    1.272   H1   495      YzA   0.000000
 10276   O2   -0.055    1.236    2.856   Os   495      YzA  -0.520000
 10277   C1   -1.504   -0.592    1.305   Cg   496      YzB   0.251000
 10278   H1   -0.908   -1.003    2.122   H2   496      YzB   0.000000
 10279   C2   -1.225    0.928    1.128   Cg   496      YzB   0.411000
 10280   H2   -1.960    1.349    0.439   H1   496      YzB   0.000000
 10281   C3    0.200    1.180    0.570   Cg   496      YzB   0.266000
 10282   H3    0.928    0.961    1.354   H1   496      YzB   0.000000
 10283   C4    0.514    0.292   -0.664   Cg   496      YzB   0.267000
 10284   H4   -0.080    0.634   -1.514   H1   496      YzB   0.000000
 10285   C5    0.211   -1.202   -0.432   Cg   496      YzB   0.075000
 10286   H5    0.869   -1.561    0.361   H1   496      YzB   0.000000
 10287   C6    0.582   -2.064   -1.708    C   496      YzB   0.893000
 10288  O6A   -0.186   -2.995   -2.040   O2   496      YzB  -0.818000
 10289  O6B    1.652   -1.778   -2.307   O2   496      YzB  -0.818000
 10290   O5   -1.196   -1.324    0.080   Os   496      YzB  -0.413000
 10291   O4    1.917    0.440   -0.995   Os   496      YzB  -0.498000
 10292   O3    0.364    2.570    0.160   Oh   496      YzB  -0.701000
 10293  H3O    1.214    2.610   -0.296   Ho   496      YzB   0.403000
 10294   O2   -1.393    1.554    2.435   Os   496      YzB  -0.512000
 10295   C1   -0.996   -1.587    0.439   Cg   497      ZaA   0.448000
 10296   H1   -1.915   -1.977    0.878   H2   497      ZaA   0.000000
 10297   O5   -1.339   -0.919   -0.841   Os   497      ZaA  -0.564000
 10298   C5   -0.289   -0.118   -1.506   Cg   497      ZaA   0.379000
 10299  H5A    0.528   -0.773   -1.812   H1   497      ZaA   0.000000
 10300  H5E   -0.707    0.348   -2.399   H1   497      ZaA   0.000000
 10301   C4    0.203    0.951   -0.526   Cg   497      ZaA   0.245000
 10302   H4   -0.624    1.630   -0.316   H1   497      ZaA   0.000000
 10303   O4    1.249    1.713   -1.150   Oh   497      ZaA  -0.748000
 10304  H4O    1.996    1.139   -1.334   Ho   497      ZaA   0.434000
 10305   C3    0.701    0.358    0.810   Cg   497      ZaA   0.335000
 10306   H3    0.939    1.163    1.507   H1   497      ZaA   0.000000
 10307   O3    1.897   -0.415    0.591   Os   497      ZaA  -0.505000
 10308   C2   -0.343   -0.594    1.430   Cg   497      ZaA   0.268000
 10309   H2    0.101   -1.139    2.265   H1   497      ZaA   0.000000
 10310   O2   -1.401    0.220    1.963   Os   497      ZaA  -0.486000
 10311   C1   -1.531   -0.733    1.009   Cg   498      ZaB   0.379000
 10312   H1   -0.995   -1.139    1.868   H2   498      ZaB   0.000000
 10313   C2   -1.196    0.783    0.833   Cg   498      ZaB   0.300000
 10314   H2   -1.378    1.307    1.773   H1   498      ZaB   0.000000
 10315   C3    0.284    0.937    0.422   Cg   498      ZaB   0.297000
 10316   H3    0.494    1.984    0.200   H1   498      ZaB   0.000000
 10317   C4    0.620    0.073   -0.821   Cg   498      ZaB   0.224000
 10318   H4    0.046    0.440   -1.673   H1   498      ZaB   0.000000
 10319   C5    0.245   -1.408   -0.587   Cg   498      ZaB   0.356000
 10320  H5A    0.875   -1.846    0.189   H1   498      ZaB   0.000000
 10321  H5E    0.395   -1.979   -1.503   H1   498      ZaB   0.000000
 10322   O5   -1.179   -1.518   -0.179   Os   498      ZaB  -0.529000
 10323   O4    2.034    0.193   -1.157   Oh   498      ZaB  -0.730000
 10324  H4O    2.177    0.970   -1.710   Ho   498      ZaB   0.440000
 10325   O3    1.127    0.537    1.537   Os   498      ZaB  -0.455000
 10326   O2   -2.019    1.402   -0.202   Os   498      ZaB  -0.476000
 10327   C1   -0.509   -1.180   -1.480   Cg   499      ZdA   0.398000
 10328   H1   -0.265   -1.519   -2.487   H2   499      ZdA   0.000000
 10329   O5    0.450   -1.784   -0.543   Os   499      ZdA  -0.487000
 10330   C5    0.467   -1.268    0.854   Cg   499      ZdA   0.275000
 10331  H5A   -0.440   -1.606    1.359   H1   499      ZdA   0.000000
 10332  H5E    1.320   -1.698    1.379   H1   499      ZdA   0.000000
 10333   C4    0.545    0.272    0.892   Cg   499      ZdA   0.351000
 10334   H4    1.524    0.603    0.540   H1   499      ZdA   0.000000
 10335   O4    0.366    0.707    2.260   Oh   499      ZdA  -0.711000
 10336  H4O    0.243    1.665    2.224   Ho   499      ZdA   0.422000
 10337   C3   -0.573    0.886    0.020   Cg   499      ZdA   0.184000
 10338   H3   -1.538    0.573    0.421   H1   499      ZdA   0.000000
 10339   O3   -0.538    2.343    0.079   Os   499      ZdA  -0.432000
 10340   C2   -0.479    0.378   -1.441   Cg   499      ZdA   0.246000
 10341   H2   -1.321    0.771   -2.013   H1   499      ZdA   0.000000
 10342   O2    0.748    0.858   -2.064   Os   499      ZdA  -0.440000
 10343   C1    1.475   -0.950    0.919   Cg   500      ZdB   0.448000
 10344   H1    1.801   -1.497    0.032   H2   500      ZdB   0.000000
 10345   C2    1.421    0.559    0.603   Cg   500      ZdB   0.226000
 10346   H2    2.404    0.915    0.290   H1   500      ZdB   0.000000
 10347   C3    0.386    0.805   -0.515   Cg   500      ZdB   0.201000
 10348   H3    0.755    0.333   -1.428   H1   500      ZdB   0.000000
 10349   C4   -1.001    0.224   -0.171   Cg   500      ZdB   0.335000
 10350   H4   -1.467    0.802    0.628   H1   500      ZdB   0.000000
 10351   C5   -0.913   -1.254    0.250   Cg   500      ZdB   0.275000
 10352  H5A   -0.655   -1.881   -0.606   H1   500      ZdB   0.000000
 10353  H5E   -1.873   -1.592    0.640   H1   500      ZdB   0.000000
 10354   O5    0.123   -1.425    1.292   Os   500      ZdB  -0.519000
 10355   O4   -1.829    0.280   -1.343   Oh   500      ZdB  -0.709000
 10356  H4O   -1.919    1.193   -1.627   Ho   500      ZdB   0.436000
 10357   O3    0.276    2.220   -0.760   Os   500      ZdB  -0.463000
 10358   O2    1.017    1.270    1.796   Os   500      ZdB  -0.424000
 10359   C1   -0.373   -1.764    1.128   Cg   501      ZeA   0.480000
 10360   H1   -1.155   -2.329    1.637   H2   501      ZeA   0.000000
 10361   O5   -0.967   -1.133   -0.075   Os   501      ZeA  -0.587000
 10362   C5   -0.161   -0.135   -0.822   Cg   501      ZeA   0.374000
 10363   H5    0.738   -0.622   -1.205   H1   501      ZeA   0.000000
 10364   C6   -1.007    0.358   -2.005   Cg   501      ZeA   0.259000
 10365  H61   -1.962    0.755   -1.657   H1   501      ZeA   0.000000
 10366  H62   -0.483    1.145   -2.548   H1   501      ZeA   0.000000
 10367   O6   -1.242   -0.739   -2.897   Oh   501      ZeA  -0.663000
 10368  H6O   -0.402   -1.080   -3.214   Ho   501      ZeA   0.406000
 10369   C4    0.246    0.977    0.164   Cg   501      ZeA   0.261000
 10370   H4   -0.657    1.494    0.493   H1   501      ZeA   0.000000
 10371   O4    1.084    1.939   -0.501   Oh   501      ZeA  -0.721000
 10372  H4O    1.897    1.513   -0.783   Ho   501      ZeA   0.415000
 10373   C3    0.977    0.441    1.414   Cg   501      ZeA   0.328000
 10374   H3    1.145    1.254    2.122   H1   501      ZeA   0.000000
 10375   O3    2.260   -0.101    1.041   Os   501      ZeA  -0.488000
 10376   C2    0.190   -0.697    2.093   Cg   501      ZeA   0.179000
 10377   H2    0.809   -1.174    2.856   H1   501      ZeA   0.000000
 10378   O2   -0.935   -0.102    2.760   Os   501      ZeA  -0.437000
 10379   C1   -1.541   -0.175    1.441   Cg   502      ZeB   0.488000
 10380   H1   -0.986   -0.576    2.289   H2   502      ZeB   0.000000
 10381   C2   -1.229    1.341    1.246   Cg   502      ZeB   0.184000
 10382   H2   -1.416    1.873    2.180   H1   502      ZeB   0.000000
 10383   C3    0.248    1.498    0.841   Cg   502      ZeB   0.315000
 10384   H3    0.460    2.549    0.638   H1   502      ZeB   0.000000
 10385   C4    0.579    0.656   -0.422   Cg   502      ZeB   0.320000
 10386   H4   -0.003    1.040   -1.261   H1   502      ZeB   0.000000
 10387   C5    0.219   -0.835   -0.212   Cg   502      ZeB   0.257000
 10388   H5    0.861   -1.252    0.567   H1   502      ZeB   0.000000
 10389   C6    0.410   -1.663   -1.498   Cg   502      ZeB   0.278000
 10390  H61    1.447   -1.624   -1.828   H1   502      ZeB   0.000000
 10391  H62   -0.220   -1.267   -2.296   H1   502      ZeB   0.000000
 10392   O6    0.050   -3.035   -1.257   Oh   502      ZeB  -0.677000
 10393  H6O   -0.821   -3.048   -0.849   Ho   502      ZeB   0.408000
 10394   O5   -1.208   -0.952    0.241   Os   502      ZeB  -0.532000
 10395   O4    1.989    0.799   -0.763   Oh   502      ZeB  -0.724000
 10396  H4O    2.135    1.635   -1.219   Ho   502      ZeB   0.420000
 10397   O3    1.074    1.082    1.964   Os   502      ZeB  -0.472000
 10398   O2   -2.048    1.952    0.199   Os   502      ZeB  -0.459000
 10399   C1   -0.701   -0.966   -1.680   Cg   503      ZfA   0.399000
 10400   H1   -0.377   -1.372   -2.638   H2   503      ZfA   0.000000
 10401   O5    0.204   -1.465   -0.632   Os   503      ZfA  -0.494000
 10402   C5    0.037   -0.887    0.737   Cg   503      ZfA   0.187000
 10403   H5   -0.930   -1.218    1.120   H1   503      ZfA   0.000000
 10404   C6    1.111   -1.498    1.640   Cg   503      ZfA   0.065000
 10405  H61    2.119   -1.270    1.290   Hc   503      ZfA   0.000000
 10406  H62    1.019   -2.584    1.681   Hc   503      ZfA   0.000000
 10407  H63    1.026   -1.128    2.662   Hc   503      ZfA   0.000000
 10408   C4    0.008    0.667    0.703   Cg   503      ZfA   0.263000
 10409   H4   -0.289    1.033    1.687   H1   503      ZfA   0.000000
 10410   O4    1.330    1.190    0.409   Oh   503      ZfA  -0.739000
 10411  H4O    1.247    2.149    0.335   Ho   503      ZfA   0.447000
 10412   C3   -0.995    1.192   -0.354   Cg   503      ZfA   0.228000
 10413   H3   -1.999    0.880   -0.064   H1   503      ZfA   0.000000
 10414   O3   -0.972    2.656   -0.355   Os   503      ZfA  -0.461000
 10415   C2   -0.656    0.598   -1.745   Cg   503      ZfA   0.456000
 10416   H2    0.360    0.889   -2.018   H1   503      ZfA   0.000000
 10417   O2   -1.542    1.134   -2.778   Os   503      ZfA  -0.545000
 10418   C1   -1.100   -1.435    1.034   Cg   504      ZfB   0.418000
 10419   H1   -0.504   -2.345    0.954   H2   504      ZfB   0.000000
 10420   C2   -0.418   -0.430    1.989   Cg   504      ZfB   0.346000
 10421   H2   -1.119    0.361    2.264   H1   504      ZfB   0.000000
 10422   C3    0.852    0.185    1.367   Cg   504      ZfB   0.255000
 10423   H3    1.622   -0.586    1.295   H1   504      ZfB   0.000000
 10424   C4    0.615    0.749   -0.048   Cg   504      ZfB   0.229000
 10425   H4    1.557    1.095   -0.474   H1   504      ZfB   0.000000
 10426   C5    0.004   -0.347   -0.947   Cg   504      ZfB   0.106000
 10427   H5    0.714   -1.175   -1.006   H1   504      ZfB   0.000000
 10428   C6   -0.324    0.078   -2.380   Cg   504      ZfB   0.092000
 10429  H61   -0.703   -0.763   -2.963   Hc   504      ZfB   0.000000
 10430  H62   -1.081    0.863   -2.412   Hc   504      ZfB   0.000000
 10431  H63    0.562    0.454   -2.894   Hc   504      ZfB   0.000000
 10432   O5   -1.239   -0.845   -0.316   Os   504      ZfB  -0.442000
 10433   O4   -0.307    1.860    0.017   Oh   504      ZfB  -0.659000
 10434  H4O   -0.461    2.200   -0.868   Ho   504      ZfB   0.423000
 10435   O3    1.354    1.233    2.218   Os   504      ZfB  -0.443000
 10436   O2   -0.025   -1.151    3.171   Os   504      ZfB  -0.519000
 10437   C1   -0.736   -0.421    1.999   Cg   505      ZgA   0.509000
 10438   H1   -1.613   -0.581    2.627   H2   505      ZgA   0.000000
 10439   O5   -0.966   -1.044    0.697   Os   505      ZgA  -0.574000
 10440   C5    0.054   -0.816   -0.379   Cg   505      ZgA   0.283000
 10441   H5    0.997   -1.264   -0.059   H1   505      ZgA   0.000000
 10442   C6   -0.401   -1.513   -1.682   Cg   505      ZgA   0.276000
 10443  H61   -1.438   -1.256   -1.901   H1   505      ZgA   0.000000
 10444  H62    0.211   -1.191   -2.525   H1   505      ZgA   0.000000
 10445   O6   -0.281   -2.948   -1.566   Oh   505      ZgA  -0.682000
 10446  H6O    0.636   -3.207   -1.682   Ho   505      ZgA   0.418000
 10447   C4    0.278    0.699   -0.567   Cg   505      ZgA   0.254000
 10448   H4   -0.621    1.147   -0.996   H1   505      ZgA   0.000000
 10449   O4    1.385    0.903   -1.482   Oh   505      ZgA  -0.710000
 10450  H4O    1.583    1.851   -1.485   Ho   505      ZgA   0.436000
 10451   C3    0.605    1.388    0.779   Cg   505      ZgA   0.286000
 10452   H3    1.576    1.043    1.142   H1   505      ZgA   0.000000
 10453   O3    0.673    2.822    0.561   Os   505      ZgA  -0.466000
 10454   C2   -0.468    1.105    1.852   Cg   505      ZgA   0.246000
 10455   H2   -1.401    1.576    1.538   H1   505      ZgA   0.000000
 10456   O2   -0.073    1.706    3.129   Os   505      ZgA  -0.470000
 10457   C1   -1.489   -0.101    1.479   Cg   506      ZgB   0.384000
 10458   H1   -0.915   -0.501    2.316   H2   506      ZgB   0.000000
 10459   C2   -1.138    1.391    1.224   Cg   506      ZgB   0.310000
 10460   H2   -1.836    1.805    0.493   H1   506      ZgB   0.000000
 10461   C3    0.304    1.520    0.686   Cg   506      ZgB   0.284000
 10462   H3    1.005    1.259    1.482   H1   506      ZgB   0.000000
 10463   C4    0.556    0.600   -0.533   Cg   506      ZgB   0.276000
 10464   H4   -0.038    0.951   -1.380   H1   506      ZgB   0.000000
 10465   C5    0.183   -0.863   -0.218   Cg   506      ZgB   0.225000
 10466   H5    0.840   -1.238    0.570   H1   506      ZgB   0.000000
 10467   C6    0.316   -1.784   -1.447   Cg   506      ZgB   0.282000
 10468  H61    1.346   -1.802   -1.803   H1   506      ZgB   0.000000
 10469  H62   -0.322   -1.425   -2.256   H1   506      ZgB   0.000000
 10470   O6   -0.081   -3.123   -1.098   Oh   506      ZgB  -0.688000
 10471  H6O   -0.957   -3.085   -0.702   Ho   506      ZgB   0.424000
 10472   O5   -1.224   -0.908    0.284   Os   506      ZgB  -0.471000
 10473   O4    1.958    0.661   -0.891   Oh   506      ZgB  -0.714000
 10474  H4O    2.199    1.595   -0.962   Ho   506      ZgB   0.440000
 10475   O3    0.546    2.899    0.292   Os   506      ZgB  -0.471000
 10476   O2   -1.252    2.151    2.463   Os   506      ZgB  -0.475000
 10477   C1   -0.493   -0.944   -1.855   Cg   507      ZhA   0.394000
 10478   H1   -0.058   -1.319   -2.781   H2   507      ZhA   0.000000
 10479   O5    0.345   -1.390   -0.729   Os   507      ZhA  -0.461000
 10480   C5    0.065   -0.822    0.615   Cg   507      ZhA   0.279000
 10481   H5   -0.908   -1.191    0.943   H1   507      ZhA   0.000000
 10482   C6    1.134   -1.376    1.559   Cg   507      ZhA   0.023000
 10483  H61    2.134   -1.047    1.272   Hc   507      ZhA   0.000000
 10484  H62    1.135   -2.467    1.560   Hc   507      ZhA   0.000000
 10485  H63    0.965   -1.055    2.587   Hc   507      ZhA   0.000000
 10486   C4    0.021    0.726    0.557   Cg   507      ZhA   0.187000
 10487   H4    1.020    1.116    0.356   H1   507      ZhA   0.000000
 10488   O4   -0.436    1.247    1.838   Oh   507      ZhA  -0.644000
 10489  H4O    0.260    1.164    2.498   Ho   507      ZhA   0.405000
 10490   C3   -0.953    1.194   -0.546   Cg   507      ZhA   0.236000
 10491   H3   -1.964    0.874   -0.283   H1   507      ZhA   0.000000
 10492   O3   -0.953    2.644   -0.616   Os   507      ZhA  -0.418000
 10493   C2   -0.602    0.605   -1.930   Cg   507      ZhA   0.248000
 10494   H2   -1.375    0.882   -2.648   H1   507      ZhA   0.000000
 10495   O2    0.662    1.160   -2.394   Os   507      ZhA  -0.443000
 10496   C1   -2.118   -0.068   -0.338   Cg   508      ZhB   0.381000
 10497   H1   -2.231    0.956   -0.697   H2   508      ZhB   0.000000
 10498   C2   -1.363   -0.905   -1.391   Cg   508      ZhB   0.243000
 10499   H2   -1.910   -0.908   -2.335   H1   508      ZhB   0.000000
 10500   C3    0.043   -0.304   -1.593   Cg   508      ZhB   0.182000
 10501   H3   -0.075    0.688   -2.036   H1   508      ZhB   0.000000
 10502   C4    0.831   -0.176   -0.273   Cg   508      ZhB   0.388000
 10503   H4    1.127   -1.165    0.081   H1   508      ZhB   0.000000
 10504   C5    0.017    0.551    0.824   Cg   508      ZhB   0.172000
 10505   H5   -0.096    1.602    0.551   H1   508      ZhB   0.000000
 10506  C6M    0.639    0.476    2.220   Cg   508      ZhB   0.039000
 10507  H3M    1.624    0.945    2.244   Hc   508      ZhB   0.000000
 10508  H2M    0.758   -0.556    2.553   Hc   508      ZhB   0.000000
 10509  H1M    0.021    0.990    2.957   Hc   508      ZhB   0.000000
 10510   O5   -1.338   -0.044    0.918   Os   508      ZhB  -0.427000
 10511   O4    2.010    0.607   -0.531   Oh   508      ZhB  -0.728000
 10512  H4O    2.519    0.695    0.278   Ho   508      ZhB   0.432000
 10513   O3    0.778   -1.121   -2.524   Os   508      ZhB  -0.441000
 10514   O2   -1.238   -2.262   -0.909   Os   508      ZhB  -0.435000
 10515   C1   -0.334   -1.772    1.083   Cg   509      ZkA   0.473000
 10516   H1   -1.125   -2.306    1.612   H2   509      ZkA   0.000000
 10517   O5   -0.935   -1.072   -0.075   Os   509      ZkA  -0.540000
 10518   C5   -0.059   -0.149   -0.847   Cg   509      ZkA   0.301000
 10519   H5    0.772   -0.731   -1.251   H1   509      ZkA   0.000000
 10520   C6   -0.854    0.411   -2.035   Cg   509      ZkA   0.287000
 10521  H61   -1.768    0.900   -1.694   H1   509      ZkA   0.000000
 10522  H62   -0.254    1.140   -2.580   H1   509      ZkA   0.000000
 10523   O6   -1.192   -0.667   -2.918   Oh   509      ZkA  -0.691000
 10524  H6O   -0.389   -1.090   -3.228   Ho   509      ZkA   0.422000
 10525   C4    0.543    0.920    0.098   Cg   509      ZkA   0.196000
 10526   H4    1.272    1.519   -0.451   H1   509      ZkA   0.000000
 10527   O4   -0.503    1.801    0.548   Oh   509      ZkA  -0.712000
 10528  H4O   -0.923    2.214   -0.211   Ho   509      ZkA   0.420000
 10529   C3    1.205    0.315    1.351   Cg   509      ZkA   0.354000
 10530   H3    1.461    1.105    2.059   H1   509      ZkA   0.000000
 10531   O3    2.426   -0.318    0.924   Os   509      ZkA  -0.502000
 10532   C2    0.278   -0.716    2.029   Cg   509      ZkA   0.281000
 10533   H2   -0.560   -0.157    2.448   H1   509      ZkA   0.000000
 10534   O2    0.939   -1.347    3.140   Os   509      ZkA  -0.483000
 10535   C1   -1.370   -0.246    1.528   Cg   510      ZkB   0.449000
 10536   H1   -0.788   -0.678    2.344   H2   510      ZkB   0.000000
 10537   C2   -1.065    1.271    1.358   Cg   510      ZkB   0.308000
 10538   H2   -1.757    1.690    0.625   H1   510      ZkB   0.000000
 10539   C3    0.379    1.477    0.845   Cg   510      ZkB   0.253000
 10540   H3    0.540    2.538    0.643   H1   510      ZkB   0.000000
 10541   C4    0.659    0.663   -0.438   Cg   510      ZkB   0.217000
 10542   H4    1.717    0.740   -0.692   H1   510      ZkB   0.000000
 10543   C5    0.297   -0.834   -0.241   Cg   510      ZkB   0.303000
 10544   H5    0.983   -1.248    0.500   H1   510      ZkB   0.000000
 10545   C6    0.444   -1.665   -1.532   Cg   510      ZkB   0.259000
 10546  H61    1.444   -1.536   -1.948   H1   510      ZkB   0.000000
 10547  H62   -0.281   -1.344   -2.279   H1   510      ZkB   0.000000
 10548   O6    0.237   -3.063   -1.249   Oh   510      ZkB  -0.670000
 10549  H6O   -0.637   -3.165   -0.860   Ho   510      ZkB   0.416000
 10550   O5   -1.098   -0.981    0.289   Os   510      ZkB  -0.514000
 10551   O4   -0.101    1.243   -1.536   Oh   510      ZkB  -0.700000
 10552  H4O    0.303    2.070   -1.824   Ho   510      ZkB   0.425000
 10553   O3    1.336    1.064    1.856   Os   510      ZkB  -0.462000
 10554   O2   -1.243    2.003    2.611   Os   510      ZkB  -0.478000
 10555   C1   -0.406   -1.750    1.076   Cg   511      ZlA   0.465000
 10556   H1   -1.221   -2.265    1.585   H2   511      ZlA   0.000000
 10557   O5   -0.960   -1.042   -0.103   Os   511      ZlA  -0.527000
 10558   C5   -0.031   -0.152   -0.855   Cg   511      ZlA   0.216000
 10559   H5    0.805   -0.754   -1.216   H1   511      ZlA   0.000000
 10560   C6   -0.766    0.409   -2.081   Cg   511      ZlA   0.308000
 10561  H61   -1.683    0.921   -1.785   H1   511      ZlA   0.000000
 10562  H62   -0.129    1.118   -2.610   H1   511      ZlA   0.000000
 10563   O6   -1.090   -0.674   -2.963   Oh   511      ZlA  -0.684000
 10564  H6O   -0.283   -1.118   -3.234   Ho   511      ZlA   0.418000
 10565   C4    0.543    0.914    0.104   Cg   511      ZlA   0.204000
 10566   H4    1.283    1.519   -0.421   H1   511      ZlA   0.000000
 10567   O4   -0.539    1.770    0.533   Oh   511      ZlA  -0.673000
 10568  H4O   -0.943    2.184   -0.233   Ho   511      ZlA   0.436000
 10569   C3    1.195    0.240    1.330   Cg   511      ZlA   0.253000
 10570   H3    2.066   -0.324    0.994   H1   511      ZlA   0.000000
 10571   O3    1.644    1.257    2.245   Os   511      ZlA  -0.462000
 10572   C2    0.217   -0.715    2.042   Cg   511      ZlA   0.339000
 10573   H2   -0.594   -0.132    2.481   H1   511      ZlA   0.000000
 10574   O2    0.892   -1.405    3.111   Os   511      ZlA  -0.487000
 10575   C1   -1.367   -0.150    1.527   Cg   512      ZlB   0.374000
 10576   H1   -0.796   -0.548    2.367   H2   512      ZlB   0.000000
 10577   C2   -1.016    1.350    1.292   Cg   512      ZlB   0.357000
 10578   H2   -1.717    1.782    0.575   H1   512      ZlB   0.000000
 10579   C3    0.428    1.480    0.752   Cg   512      ZlB   0.259000
 10580   H3    1.123    1.157    1.530   H1   512      ZlB   0.000000
 10581   C4    0.667    0.603   -0.499   Cg   512      ZlB   0.203000
 10582   H4    1.717    0.668   -0.788   H1   512      ZlB   0.000000
 10583   C5    0.308   -0.870   -0.204   Cg   512      ZlB   0.140000
 10584   H5    0.993   -1.230    0.566   H1   512      ZlB   0.000000
 10585   C6    0.451   -1.785   -1.433   Cg   512      ZlB   0.319000
 10586  H61    1.448   -1.689   -1.863   H1   512      ZlB   0.000000
 10587  H62   -0.282   -1.526   -2.198   H1   512      ZlB   0.000000
 10588   O6    0.247   -3.149   -1.028   Oh   512      ZlB  -0.693000
 10589  H6O   -0.627   -3.212   -0.635   Ho   512      ZlB   0.419000
 10590   O5   -1.083   -0.962    0.336   Os   512      ZlB  -0.402000
 10591   O4   -0.142    1.091   -1.597   Oh   512      ZlB  -0.664000
 10592  H4O    0.027    2.040   -1.677   Ho   512      ZlB   0.437000
 10593   O3    0.736    2.865    0.429   Os   512      ZlB  -0.455000
 10594   O2   -1.114    2.084    2.548   Os   512      ZlB  -0.488000
 10595   C1   -0.877   -0.468    1.944   Cg   513      ZmA   0.433000
 10596   H1   -1.810   -0.648    2.477   H2   513      ZmA   0.000000
 10597   O5   -0.959   -1.104    0.621   Os   513      ZmA  -0.507000
 10598   C5    0.116   -0.809   -0.379   Cg   513      ZmA   0.276000
 10599   H5    1.045   -1.254   -0.018   H1   513      ZmA   0.000000
 10600   C6   -0.248   -1.461   -1.731   Cg   513      ZmA   0.266000
 10601  H61   -1.267   -1.193   -2.013   H1   513      ZmA   0.000000
 10602  H62    0.421   -1.111   -2.517   H1   513      ZmA   0.000000
 10603   O6   -0.138   -2.899   -1.657   Oh   513      ZmA  -0.688000
 10604  H6O    0.787   -3.155   -1.630   Ho   513      ZmA   0.422000
 10605   C4    0.329    0.717   -0.507   Cg   513      ZmA   0.326000
 10606   H4   -0.538    1.175   -0.986   H1   513      ZmA   0.000000
 10607   O4    1.501    0.959   -1.328   Oh   513      ZmA  -0.733000
 10608  H4O    1.675    1.909   -1.308   Ho   513      ZmA   0.438000
 10609   C3    0.558    1.354    0.887   Cg   513      ZmA   0.252000
 10610   H3    1.469    0.934    1.317   H1   513      ZmA   0.000000
 10611   O3    0.750    2.797    0.772   Os   513      ZmA  -0.459000
 10612   C2   -0.618    1.062    1.846   Cg   513      ZmA   0.245000
 10613   H2   -0.379    1.453    2.836   H1   513      ZmA   0.000000
 10614   O2   -1.819    1.742    1.373   Os   513      ZmA  -0.465000
 10615   C1   -1.465   -0.164    1.538   Cg   514      ZmB   0.314000
 10616   H1   -0.831   -0.465    2.373   H2   514      ZmB   0.000000
 10617   C2   -1.240    1.339    1.210   Cg   514      ZmB   0.241000
 10618   H2   -1.459    1.946    2.089   H1   514      ZmB   0.000000
 10619   C3    0.244    1.505    0.806   Cg   514      ZmB   0.263000
 10620   H3    0.859    1.156    1.639   H1   514      ZmB   0.000000
 10621   C4    0.570    0.645   -0.445   Cg   514      ZmB   0.349000
 10622   H4   -0.005    0.999   -1.301   H1   514      ZmB   0.000000
 10623   C5    0.246   -0.847   -0.176   Cg   514      ZmB   0.206000
 10624   H5    0.945   -1.228    0.572   H1   514      ZmB   0.000000
 10625   C6    0.375   -1.701   -1.449   Cg   514      ZmB   0.273000
 10626  H61    1.388   -1.643   -1.848   H1   514      ZmB   0.000000
 10627  H62   -0.315   -1.345   -2.215   H1   514      ZmB   0.000000
 10628   O6    0.073   -3.075   -1.149   Oh   514      ZmB  -0.680000
 10629  H6O   -0.804   -3.114   -0.754   Ho   514      ZmB   0.419000
 10630   O5   -1.139   -1.000    0.374   Os   514      ZmB  -0.393000
 10631   O4    1.984    0.756   -0.758   Oh   514      ZmB  -0.746000
 10632  H4O    2.127    1.585   -1.227   Ho   514      ZmB   0.443000
 10633   O3    0.570    2.910    0.602   Os   514      ZmB  -0.456000
 10634   O2   -2.121    1.743    0.119   Os   514      ZmB  -0.427000
 10635   C1   -0.419   -1.789    1.069   Cg   515      ZnA   0.478000
 10636   H1   -1.209   -2.372    1.541   H2   515      ZnA   0.000000
 10637   O5   -0.979   -1.127   -0.130   Os   515      ZnA  -0.611000
 10638   C5   -0.152   -0.107   -0.832   Cg   515      ZnA   0.404000
 10639   H5    0.736   -0.596   -1.237   H1   515      ZnA   0.000000
 10640   C6   -0.987    0.453   -1.991   Cg   515      ZnA   0.280000
 10641  H61   -1.931    0.860   -1.625   H1   515      ZnA   0.000000
 10642  H62   -0.445    1.248   -2.504   H1   515      ZnA   0.000000
 10643   O6   -1.254   -0.600   -2.927   Oh   515      ZnA  -0.663000
 10644  H6O   -0.425   -0.949   -3.262   Ho   515      ZnA   0.396000
 10645   C4    0.285    0.963    0.194   Cg   515      ZnA   0.167000
 10646   H4   -0.601    1.508    0.522   H1   515      ZnA   0.000000
 10647   O4    1.170    1.906   -0.437   Oh   515      ZnA  -0.733000
 10648  H4O    1.958    1.450   -0.743   Ho   515      ZnA   0.444000
 10649   C3    0.975    0.377    1.443   Cg   515      ZnA   0.330000
 10650   H3    1.161    1.167    2.172   H1   515      ZnA   0.000000
 10651   O3    2.237   -0.220    1.071   Os   515      ZnA  -0.467000
 10652   C2    0.055   -0.697    2.055   Cg   515      ZnA   0.228000
 10653   H2   -0.842   -0.184    2.405   H1   515      ZnA   0.000000
 10654   O2    0.667   -1.291    3.215   Os   515      ZnA  -0.447000
 10655   C1   -1.482   -0.161    1.459   Cg   516      ZnB   0.422000
 10656   H1   -0.900   -0.566    2.290   H2   516      ZnB   0.000000
 10657   C2   -1.178    1.352    1.245   Cg   516      ZnB   0.301000
 10658   H2   -1.879    1.752    0.508   H1   516      ZnB   0.000000
 10659   C3    0.255    1.554    0.707   Cg   516      ZnB   0.234000
 10660   H3    0.413    2.611    0.484   H1   516      ZnB   0.000000
 10661   C4    0.460    0.715   -0.575   Cg   516      ZnB   0.286000
 10662   H4   -0.237    1.066   -1.338   H1   516      ZnB   0.000000
 10663   C5    0.191   -0.786   -0.314   Cg   516      ZnB   0.198000
 10664   H5    0.901   -1.155    0.427   H1   516      ZnB   0.000000
 10665   C6    0.330   -1.646   -1.585   Cg   516      ZnB   0.313000
 10666  H61    1.343   -1.585   -1.982   H1   516      ZnB   0.000000
 10667  H62   -0.364   -1.304   -2.352   H1   516      ZnB   0.000000
 10668   O6    0.037   -3.017   -1.263   Oh   516      ZnB  -0.689000
 10669  H6O   -0.778   -3.029   -0.752   Ho   516      ZnB   0.418000
 10670   O5   -1.195   -0.933    0.241   Os   516      ZnB  -0.507000
 10671   O4    1.802    0.914   -1.077   Oh   516      ZnB  -0.707000
 10672  H4O    2.401    0.958   -0.320   Ho   516      ZnB   0.430000
 10673   O3    1.220    1.145    1.721   Os   516      ZnB  -0.420000
 10674   O2   -1.340    2.115    2.477   Os   516      ZnB  -0.473000
 10675   C1   -0.499   -0.658    1.864   Cg   517      ZoA   0.305000
 10676   H1   -1.383   -0.837    2.476   H2   517      ZoA   0.000000
 10677   O5   -0.674   -1.347    0.576   Os   517      ZoA  -0.424000
 10678   C5    0.301   -1.034   -0.541   Cg   517      ZoA   0.054000
 10679   H5    1.287   -1.388   -0.233   H1   517      ZoA   0.000000
 10680   C6   -0.010   -1.655   -1.944    C   517      ZoA   0.896000
 10681  O6B   -1.171   -1.502   -2.396   O2   517      ZoA  -0.822000
 10682  O6A    0.953   -2.175   -2.551   O2   517      ZoA  -0.822000
 10683   C4    0.362    0.492   -0.741   Cg   517      ZoA   0.267000
 10684   H4    1.103    0.731   -1.506   H1   517      ZoA   0.000000
 10685   O4   -0.948    0.927   -1.203   Oh   517      ZoA  -0.704000
 10686  H4O   -1.299    0.207   -1.768   Ho   517      ZoA   0.429000
 10687   C3    0.755    1.180    0.592   Cg   517      ZoA   0.251000
 10688   H3    1.709    0.762    0.919   H1   517      ZoA   0.000000
 10689   O3    0.963    2.615    0.421   Os   517      ZoA  -0.503000
 10690   C2   -0.303    0.882    1.682   Cg   517      ZoA   0.413000
 10691   H2   -1.255    1.330    1.394   H1   517      ZoA   0.000000
 10692   O2    0.107    1.470    2.959   Os   517      ZoA  -0.534000
 10693   C1   -1.382   -0.486    1.446   Cg   518      ZoB   0.301000
 10694   H1   -0.798   -0.867    2.285   H2   518      ZoB   0.000000
 10695   C2   -1.073    1.024    1.212   Cg   518      ZoB   0.383000
 10696   H2   -1.818    1.450    0.538   H1   518      ZoB   0.000000
 10697   C3    0.344    1.213    0.605   Cg   518      ZoB   0.259000
 10698   H3    1.079    0.920    1.356   H1   518      ZoB   0.000000
 10699   C4    0.555    0.326   -0.646   Cg   518      ZoB   0.260000
 10700   H4    1.582    0.453   -0.990   H1   518      ZoB   0.000000
 10701   C5    0.293   -1.154   -0.318   Cg   518      ZoB   0.049000
 10702   H5    0.993   -1.437    0.472   H1   518      ZoB   0.000000
 10703   C6    0.689   -2.063   -1.540    C   518      ZoB   0.838000
 10704  O6A   -0.083   -2.993   -1.874   O2   518      ZoB  -0.794000
 10705  O6B    1.821   -1.856   -2.043   O2   518      ZoB  -0.794000
 10706   O5   -1.088   -1.296    0.265   Os   518      ZoB  -0.414000
 10707   O4   -0.342    0.757   -1.701   Oh   518      ZoB  -0.661000
 10708  H4O   -0.222    1.704   -1.813   Ho   518      ZoB   0.402000
 10709   O3    0.616    2.607    0.242   Os   518      ZoB  -0.498000
 10710   O2   -1.165    1.698    2.503   Os   518      ZoB  -0.525000
 10711   C1   -0.616   -0.908   -1.813   Cg   519      ZqA   0.465000
 10712   H1   -0.289   -1.296   -2.778   H1   519      ZqA   0.000000
 10713   O5    0.330   -1.353   -0.784   Os   519      ZqA  -0.559000
 10714   C5    0.129   -0.837    0.596   Cg   519      ZqA   0.234000
 10715   H5   -0.819   -1.226    0.972   H1   519      ZqA   0.000000
 10716   C6    1.258   -1.410    1.456   Cg   519      ZqA   0.060000
 10717  H61    1.268   -2.501    1.421   Hc   519      ZqA   0.000000
 10718  H62    1.148   -1.124    2.503   Hc   519      ZqA   0.000000
 10719  H63    2.237   -1.062    1.122   Hc   519      ZqA   0.000000
 10720   C4    0.068    0.708    0.582   Cg   519      ZqA   0.208000
 10721   H4    1.059    1.102    0.346   H1   519      ZqA   0.000000
 10722   O4   -0.317    1.176    1.905   Oh   519      ZqA  -0.664000
 10723  H4O    0.429    1.119    2.511   Ho   519      ZqA   0.403000
 10724   C3   -0.949    1.236   -0.462   Cg   519      ZqA   0.312000
 10725   H3   -1.962    0.985   -0.141   H1   519      ZqA   0.000000
 10726   O3   -0.817    2.680   -0.496   Os   519      ZqA  -0.467000
 10727   C2   -0.698    0.645   -1.872   Cg   519      ZqA   0.281000
 10728   H2    0.263    1.014   -2.233   H1   519      ZqA   0.000000
 10729   O2   -1.721    1.055   -2.835   Os   519      ZqA  -0.467000
 10730   C1   -1.407   -0.410    1.527   Cg   520      ZqB   0.391000
 10731   H1   -0.754   -0.826    2.296   H1   520      ZqB   0.000000
 10732   C2   -1.146    1.109    1.328   Cg   520      ZqB   0.323000
 10733   H2   -1.907    1.521    0.662   H1   520      ZqB   0.000000
 10734   C3    0.253    1.325    0.708   Cg   520      ZqB   0.300000
 10735   H3    1.012    1.059    1.448   H1   520      ZqB   0.000000
 10736   C4    0.475    0.477   -0.569   Cg   520      ZqB   0.250000
 10737   H4   -0.164    0.855   -1.369   H1   520      ZqB   0.000000
 10738   C5    0.151   -1.016   -0.319   Cg   520      ZqB   0.271000
 10739   H5    0.872   -1.427    0.391   H1   520      ZqB   0.000000
 10740   C6    0.169   -1.878   -1.583   Cg   520      ZqB   0.048000
 10741  H61   -0.090   -2.914   -1.359   Hc   520      ZqB   0.000000
 10742  H62    1.157   -1.889   -2.046   Hc   520      ZqB   0.000000
 10743  H63   -0.540   -1.516   -2.329   Hc   520      ZqB   0.000000
 10744   O5   -1.207   -1.133    0.273   Os   520      ZqB  -0.535000
 10745   O4    1.861    0.594   -0.983   Oh   520      ZqB  -0.713000
 10746  H4O    2.067    1.534   -1.058   Ho   520      ZqB   0.421000
 10747   O3    0.413    2.730    0.371   Os   520      ZqB  -0.463000
 10748   O2   -1.215    1.807    2.609   Os   520      ZqB  -0.487000
 10749   C1   -1.031   -1.575    0.372   Cg   521      ZrA   0.488000
 10750   H1   -1.974   -1.983    0.739   H2   521      ZrA   0.000000
 10751   O5   -1.281   -0.925   -0.937   Os   521      ZrA  -0.561000
 10752   C5   -0.188   -0.113   -1.524   Cg   521      ZrA   0.377000
 10753  H5A    0.645   -0.767   -1.787   H1   521      ZrA   0.000000
 10754  H5E   -0.548    0.363   -2.437   H1   521      ZrA   0.000000
 10755   C4    0.256    0.950   -0.507   Cg   521      ZrA   0.122000
 10756   H4   -0.570    1.647   -0.358   H1   521      ZrA   0.000000
 10757   O4    1.358    1.689   -1.058   Oh   521      ZrA  -0.663000
 10758  H4O    2.094    1.093   -1.217   Ho   521      ZrA   0.419000
 10759   C3    0.646    0.359    0.863   Cg   521      ZrA   0.345000
 10760   H3    0.853    1.162    1.572   H1   521      ZrA   0.000000
 10761   O3    1.830   -0.458    0.723   Os   521      ZrA  -0.488000
 10762   C2   -0.525   -0.506    1.369   Cg   521      ZrA   0.253000
 10763   H2   -1.362    0.170    1.551   H1   521      ZrA   0.000000
 10764   O2   -0.202   -1.106    2.637   Os   521      ZrA  -0.486000
 10765   C1   -1.536   -0.688    1.027   Cg   522      ZrB   0.481000
 10766   H1   -1.029   -1.087    1.906   H2   522      ZrB   0.000000
 10767   C2   -1.165    0.809    0.776   Cg   522      ZrB   0.385000
 10768   H2   -1.749    1.166   -0.075   H1   522      ZrB   0.000000
 10769   C3    0.336    0.909    0.402   Cg   522      ZrB   0.203000
 10770   H3    0.597    1.949    0.199   H1   522      ZrB   0.000000
 10771   C4    0.589    0.052   -0.863   Cg   522      ZrB   0.236000
 10772   H4   -0.023    0.439   -1.679   H1   522      ZrB   0.000000
 10773   C5    0.199   -1.426   -0.615   Cg   522      ZrB   0.335000
 10774  H5A    0.851   -1.877    0.134   H1   522      ZrB   0.000000
 10775  H5E    0.301   -1.998   -1.537   H1   522      ZrB   0.000000
 10776   O5   -1.212   -1.508   -0.150   Os   522      ZrB  -0.576000
 10777   O4    1.981    0.151   -1.268   Oh   522      ZrB  -0.695000
 10778  H4O    2.159    1.020   -1.643   Ho   522      ZrB   0.411000
 10779   O3    1.184    0.411    1.481   Os   522      ZrB  -0.462000
 10780   O2   -1.483    1.679    1.903   Os   522      ZrB  -0.512000
 10781   C1   -0.397   -1.757    1.096   Cg   523      ZtA   0.456000
 10782   H1   -1.226   -2.267    1.588   H2   523      ZtA   0.000000
 10783   O5   -0.923   -1.066   -0.108   Os   523      ZtA  -0.480000
 10784   C5    0.000   -0.164   -0.848   Cg   523      ZtA   0.157000
 10785   H5    0.856   -0.753   -1.184   H1   523      ZtA   0.000000
 10786   C6   -0.720    0.368   -2.095   Cg   523      ZtA   0.304000
 10787  H61   -1.655    0.860   -1.824   H1   523      ZtA   0.000000
 10788  H62   -0.089    1.086   -2.618   H1   523      ZtA   0.000000
 10789   O6   -1.000   -0.732   -2.973   Oh   523      ZtA  -0.669000
 10790  H6O   -0.177   -1.158   -3.223   Ho   523      ZtA   0.401000
 10791   C4    0.534    0.925    0.107   Cg   523      ZtA   0.434000
 10792   H4    1.292    1.520   -0.404   H1   523      ZtA   0.000000
 10793   O4   -0.554    1.794    0.487   Oh   523      ZtA  -0.731000
 10794  H4O   -0.928    2.200   -0.298   Ho   523      ZtA   0.417000
 10795   C3    1.151    0.264    1.358   Cg   523      ZtA   0.124000
 10796   H3    2.028   -0.291    1.019   H1   523      ZtA   0.000000
 10797   O3    1.630    1.263    2.277   Os   523      ZtA  -0.439000
 10798   C2    0.234   -0.749    2.078   Cg   523      ZtA   0.245000
 10799   H2    0.801   -1.277    2.846   H1   523      ZtA   0.000000
 10800   O2   -0.859   -0.066    2.720   Os   523      ZtA  -0.413000
 10801   C1   -1.232   -1.113    1.244   Cg   524      ZtB   0.306000
 10802   H1   -0.682   -2.055    1.237   H2   524      ZtB   0.000000
 10803   C2   -0.506   -0.108    2.164   Cg   524      ZtB   0.340000
 10804   H2   -0.389   -0.532    3.163   H1   524      ZtB   0.000000
 10805   C3    0.880    0.214    1.563   Cg   524      ZtB   0.174000
 10806   H3    1.467   -0.705    1.615   H1   524      ZtB   0.000000
 10807   C4    0.861    0.647    0.078   Cg   524      ZtB   0.314000
 10808   H4    1.884    0.705   -0.299   H1   524      ZtB   0.000000
 10809   C5    0.058   -0.370   -0.766   Cg   524      ZtB   0.031000
 10810   H5    0.603   -1.316   -0.744   H1   524      ZtB   0.000000
 10811   C6   -0.143    0.017   -2.237   Cg   524      ZtB   0.349000
 10812  H61    0.816    0.244   -2.703   H1   524      ZtB   0.000000
 10813  H62   -0.786    0.894   -2.324   H1   524      ZtB   0.000000
 10814   O6   -0.748   -1.084   -2.928   Oh   524      ZtB  -0.666000
 10815  H6O   -1.591   -1.293   -2.520   Ho   524      ZtB   0.406000
 10816   O5   -1.273   -0.590   -0.140   Os   524      ZtB  -0.354000
 10817   O4    0.251    1.948   -0.053   Oh   524      ZtB  -0.626000
 10818  H4O    0.249    2.209   -0.976   Ho   524      ZtB   0.413000
 10819   O3    1.570    1.186    2.368   Os   524      ZtB  -0.447000
 10820   O2   -1.290    1.101    2.258   Os   524      ZtB  -0.434000
 10821   C1   -1.816   -0.883    0.106   Cg   525      ZuA   0.363000
 10822   H1   -1.675   -1.378   -0.855   H2   525      ZuA   0.000000
 10823   O5   -0.778   -1.326    1.038   Os   525      ZuA  -0.515000
 10824   C5    0.628   -0.925    0.690   Cg   525      ZuA   0.232000
 10825   H5    1.264   -1.276    1.504   H1   525      ZuA   0.000000
 10826   C6    1.278   -1.509   -0.640    C   525      ZuA   0.697000
 10827  O6B    2.433   -1.115   -0.932   O2   525      ZuA  -0.757000
 10828  O6A    0.591   -2.279   -1.348   O2   525      ZuA  -0.757000
 10829   C4    0.667    0.616    0.702   Cg   525      ZuA   0.223000
 10830   H4    0.404    0.958    1.705   H1   525      ZuA   0.000000
 10831   O4    2.011    1.104    0.403   Oh   525      ZuA  -0.711000
 10832  H4O    2.448    0.435   -0.171   Ho   525      ZuA   0.397000
 10833   C3   -0.368    1.189   -0.301   Cg   525      ZuA   0.417000
 10834   H3   -0.057    0.920   -1.313   H1   525      ZuA   0.000000
 10835   O3   -0.326    2.637   -0.181   Os   525      ZuA  -0.548000
 10836   C2   -1.814    0.667   -0.066   Cg   525      ZuA   0.259000
 10837   H2   -2.207    1.120    0.846   H1   525      ZuA   0.000000
 10838   O2   -2.683    1.044   -1.188   Os   525      ZuA  -0.494000
 10839   C1    0.655   -1.029    1.586   Cg   526      ZuB   0.278000
 10840   H1    1.396   -1.498    2.234   H2   526      ZuB   0.000000
 10841   C2    0.917    0.505    1.543   Cg   526      ZuB   0.289000
 10842   H2    1.955    0.645    1.239   H1   526      ZuB   0.000000
 10843   C3    0.022    1.209    0.499   Cg   526      ZuB   0.286000
 10844   H3   -1.028    1.124    0.783   H1   526      ZuB   0.000000
 10845   C4    0.246    0.569   -0.897   Cg   526      ZuB   0.308000
 10846   H4    1.291    0.723   -1.173   H1   526      ZuB   0.000000
 10847   C5   -0.014   -0.955   -0.884   Cg   526      ZuB   0.194000
 10848   H5    0.372   -1.357   -1.822   H1   526      ZuB   0.000000
 10849   C6   -1.560   -1.283   -0.901    C   526      ZuB   0.750000
 10850  O6A   -1.990   -2.088   -0.044   O2   526      ZuB  -0.783000
 10851  O6B   -2.272   -0.694   -1.751   O2   526      ZuB  -0.783000
 10852   O5    0.808   -1.577    0.222   Os   526      ZuB  -0.430000
 10853   O4   -0.568    1.246   -1.897   Oh   526      ZuB  -0.745000
 10854  H4O   -1.383    0.702   -2.018   Ho   526      ZuB   0.422000
 10855   O3    0.379    2.623    0.436   Os   526      ZuB  -0.528000
 10856   O2    0.775    1.133    2.847   Os   526      ZuB  -0.452000
 10857   C1   -0.471   -1.155   -1.501   Cg   527      ZxA   0.482000
 10858   H1   -0.256   -1.473   -2.522   H2   527      ZxA   0.000000
 10859   O5    0.536   -1.727   -0.607   Os   527      ZxA  -0.588000
 10860   C5    0.515   -1.285    0.815   Cg   527      ZxA   0.335000
 10861  H5A   -0.388   -1.671    1.291   H1   527      ZxA   0.000000
 10862  H5E    1.374   -1.714    1.331   H1   527      ZxA   0.000000
 10863   C4    0.553    0.250    0.917   Cg   527      ZxA   0.247000
 10864   H4    1.531    0.603    0.587   H1   527      ZxA   0.000000
 10865   O4    0.364    0.627    2.307   Oh   527      ZxA  -0.720000
 10866  H4O    0.327    1.592    2.352   Ho   527      ZxA   0.420000
 10867   C3   -0.552    0.882    0.037   Cg   527      ZxA   0.359000
 10868   H3   -1.534    0.645    0.451   H1   527      ZxA   0.000000
 10869   O3   -0.379    2.323    0.041   Os   527      ZxA  -0.485000
 10870   C2   -0.481    0.395   -1.426   Cg   527      ZxA   0.197000
 10871   H2    0.450    0.755   -1.866   H1   527      ZxA   0.000000
 10872   O2   -1.588    0.951   -2.206   Os   527      ZxA  -0.441000
 10873   C1   -1.380   -0.840    1.145   Cg   528      ZxB   0.248000
 10874   H1   -0.737   -1.231    1.934   H2   528      ZxB   0.000000
 10875   C2   -1.126    0.681    0.929   Cg   528      ZxB   0.425000
 10876   H2   -1.894    1.086    0.267   H1   528      ZxB   0.000000
 10877   C3    0.272    0.931    0.316   Cg   528      ZxB   0.228000
 10878   H3    1.035    0.686    1.058   H1   528      ZxB   0.000000
 10879   C4    0.498    0.065   -0.944   Cg   528      ZxB   0.286000
 10880   H4   -0.163    0.401   -1.744   H1   528      ZxB   0.000000
 10881   C5    0.228   -1.426   -0.662   Cg   528      ZxB   0.303000
 10882  H5A    0.964   -1.821    0.041   H1   528      ZxB   0.000000
 10883  H5E    0.297   -2.002   -1.585   H1   528      ZxB   0.000000
 10884   O5   -1.128   -1.591   -0.089   Os   528      ZxB  -0.447000
 10885   O4    1.870    0.208   -1.381   Oh   528      ZxB  -0.723000
 10886  H4O    2.053    1.154   -1.450   Ho   528      ZxB   0.430000
 10887   O3    0.414    2.337   -0.045   Os   528      ZxB  -0.449000
 10888   O2   -1.202    1.361    2.210   Os   528      ZxB  -0.495000
 10889   C1   -0.714   -0.674    1.863   Cg   529      ZzA   0.398000
 10890   H1   -1.571   -0.872    2.506   H2   529      ZzA   0.000000
 10891   O5   -0.971   -1.252    0.549   Os   529      ZzA  -0.544000
 10892   C5    0.032   -0.989   -0.556   Cg   529      ZzA   0.187000
 10893   H5    0.966   -1.446   -0.222   H1   529      ZzA   0.000000
 10894   C6   -0.239   -1.662   -1.979    C   529      ZzA   0.798000
 10895  O6B   -1.064   -2.601   -2.047   O2   529      ZzA  -0.787000
 10896  O6A    0.439   -1.249   -2.957   O2   529      ZzA  -0.787000
 10897   C4    0.300    0.532   -0.684   Cg   529      ZzA   0.193000
 10898   H4   -0.564    0.997   -1.161   H1   529      ZzA   0.000000
 10899   O4    1.456    0.698   -1.547   Oh   529      ZzA  -0.682000
 10900  H4O    1.292    0.125   -2.328   Ho   529      ZzA   0.422000
 10901   C3    0.565    1.224    0.684   Cg   529      ZzA   0.300000
 10902   H3    1.552    0.930    1.045   H1   529      ZzA   0.000000
 10903   O3    0.538    2.674    0.532   Os   529      ZzA  -0.498000
 10904   C2   -0.485    0.856    1.759   Cg   529      ZzA   0.326000
 10905   H2   -1.437    1.312    1.480   H1   529      ZzA   0.000000
 10906   O2   -0.094    1.399    3.064   Os   529      ZzA  -0.520000
 10907   C1   -1.554   -0.431    1.379   Cg   530      ZzB   0.251000
 10908   H1   -0.958   -0.841    2.196   H2   530      ZzB   0.000000
 10909   C2   -1.275    1.090    1.202   Cg   530      ZzB   0.411000
 10910   H2   -2.010    1.510    0.513   H1   530      ZzB   0.000000
 10911   C3    0.150    1.341    0.644   Cg   530      ZzB   0.266000
 10912   H3    0.878    1.122    1.428   H1   530      ZzB   0.000000
 10913   C4    0.464    0.453   -0.590   Cg   530      ZzB   0.267000
 10914   H4   -0.130    0.795   -1.440   H1   530      ZzB   0.000000
 10915   C5    0.161   -1.041   -0.359   Cg   530      ZzB   0.075000
 10916   H5    0.819   -1.400    0.435   H1   530      ZzB   0.000000
 10917   C6    0.532   -1.903   -1.635    C   530      ZzB   0.893000
 10918  O6A   -0.236   -2.834   -1.966   O2   530      ZzB  -0.818000
 10919  O6B    1.602   -1.617   -2.233   O2   530      ZzB  -0.818000
 10920   O5   -1.246   -1.162    0.154   Os   530      ZzB  -0.413000
 10921   O4    1.867    0.602   -0.921   Oh   530      ZzB  -0.733000
 10922  H4O    2.064   -0.132   -1.552   Ho   530      ZzB   0.429000
 10923   O3    0.314    2.732    0.234   Os   530      ZzB  -0.492000
 10924   O2   -1.443    1.715    2.508   Os   530      ZzB  -0.512000
@<TRIPOS>BOND
     1      1      2 1
     2      1      3 1
     3      1     15 1
     4      3      4 1
     5      4      5 1
     6      4      6 1
     7      4      7 1
     8      7      8 1
     9      7      9 1
    10      7     11 1
    11      9     10 1
    12     11     12 1
    13     11     13 1
    14     11     15 1
    15     13     14 1
    16     15     16 1
    17     15     17 1
    18     17     18 1
    19     19     20 1
    20     19     21 1
    21     19     30 1
    22     21     22 1
    23     21     23 1
    24     21     35 1
    25     23     24 1
    26     23     25 1
    27     23     33 1
    28     25     26 1
    29     25     27 1
    30     25     31 1
    31     27     28 1
    32     27     29 1
    33     27     30 1
    34     31     32 1
    35     33     34 1
    36     35     36 1
    37     37     38 1
    38     37     50 1
    39     37     54 1
    40     38     39 1
    41     39     40 1
    42     39     41 1
    43     39     42 1
    44     42     43 1
    45     42     44 1
    46     42     46 1
    47     44     45 1
    48     46     47 1
    49     46     48 1
    50     46     50 1
    51     48     49 1
    52     50     51 1
    53     50     52 1
    54     52     53 1
    55     54     55 1
    56     54     56 1
    57     54     57 1
    58     57     58 1
    59     59     60 1
    60     59     65 1
    61     59     74 1
    62     60     61 1
    63     60     62 1
    64     60     63 1
    65     63     64 1
    66     65     66 1
    67     65     67 1
    68     65     79 1
    69     67     68 1
    70     67     69 1
    71     67     77 1
    72     69     70 1
    73     69     71 1
    74     69     75 1
    75     71     72 1
    76     71     73 1
    77     71     74 1
    78     75     76 1
    79     77     78 1
    80     79     80 1
    81     81     82 1
    82     81     94 1
    83     81     98 1
    84     82     83 1
    85     83     84 1
    86     83     85 1
    87     83     86 1
    88     86     87 1
    89     86     88 1
    90     86     90 1
    91     88     89 1
    92     90     91 1
    93     90     92 1
    94     90     94 1
    95     92     93 1
    96     94     95 1
    97     94     96 1
    98     96     97 1
    99     98     99 1
   100     98    100 1
   101     98    101 1
   102    101    102 1
   103    103    104 1
   104    103    109 1
   105    103    118 1
   106    104    105 1
   107    104    106 1
   108    104    107 1
   109    107    108 1
   110    109    110 1
   111    109    111 1
   112    109    123 1
   113    111    112 1
   114    111    113 1
   115    111    121 1
   116    113    114 1
   117    113    115 1
   118    113    119 1
   119    115    116 1
   120    115    117 1
   121    115    118 1
   122    119    120 1
   123    121    122 1
   124    123    124 1
   125    125    126 1
   126    125    127 1
   127    125    139 1
   128    127    128 1
   129    128    129 1
   130    128    130 1
   131    128    131 1
   132    131    132 1
   133    131    133 1
   134    131    135 1
   135    133    134 1
   136    135    136 1
   137    135    137 1
   138    135    139 1
   139    137    138 1
   140    139    140 1
   141    139    141 1
   142    141    142 1
   143    143    144 1
   144    143    145 1
   145    143    154 1
   146    145    146 1
   147    145    147 1
   148    145    159 1
   149    147    148 1
   150    147    149 1
   151    147    157 1
   152    149    150 1
   153    149    151 1
   154    149    155 1
   155    151    152 1
   156    151    153 1
   157    151    154 1
   158    155    156 1
   159    157    158 1
   160    159    160 1
   161    161    162 1
   162    161    163 1
   163    161    179 1
   164    163    164 1
   165    164    165 1
   166    164    166 1
   167    164    171 1
   168    166    167 1
   169    166    168 1
   170    166    169 1
   171    169    170 1
   172    171    172 1
   173    171    173 1
   174    171    175 1
   175    173    174 1
   176    175    176 1
   177    175    177 1
   178    175    179 1
   179    177    178 1
   180    179    180 1
   181    179    181 1
   182    181    182 1
   183    183    184 1
   184    183    185 1
   185    183    198 1
   186    185    186 1
   187    185    187 1
   188    185    203 1
   189    187    188 1
   190    187    189 1
   191    187    201 1
   192    189    190 1
   193    189    191 1
   194    189    199 1
   195    191    192 1
   196    191    193 1
   197    191    198 1
   198    193    194 1
   199    193    195 1
   200    193    196 1
   201    196    197 1
   202    199    200 1
   203    201    202 1
   204    203    204 1
   205    205    206 1
   206    205    207 1
   207    205    222 1
   208    207    208 1
   209    208    209 1
   210    208    210 1
   211    208    214 1
   212    210    211 1
   213    210    212 1
   214    210    213 1
   215    214    215 1
   216    214    216 1
   217    214    218 1
   218    216    217 1
   219    218    219 1
   220    218    220 1
   221    218    222 1
   222    220    221 1
   223    222    223 1
   224    222    224 1
   225    224    225 1
   226    226    227 1
   227    226    228 1
   228    226    240 1
   229    228    229 1
   230    228    230 1
   231    228    245 1
   232    230    231 1
   233    230    232 1
   234    230    243 1
   235    232    233 1
   236    232    234 1
   237    232    241 1
   238    234    235 1
   239    234    236 1
   240    234    240 1
   241    236    237 1
   242    236    238 1
   243    236    239 1
   244    241    242 1
   245    243    244 1
   246    245    246 1
   247    247    248 1
   248    247    249 1
   249    247    265 1
   250    249    250 1
   251    250    251 1
   252    250    252 1
   253    250    257 1
   254    252    253 1
   255    252    254 1
   256    252    255 1
   257    255    256 1
   258    257    258 1
   259    257    259 1
   260    257    261 1
   261    259    260 1
   262    261    262 1
   263    261    263 1
   264    261    265 1
   265    263    264 1
   266    265    266 1
   267    265    267 1
   268    267    268 1
   269    269    270 1
   270    269    271 1
   271    269    284 1
   272    271    272 1
   273    271    273 1
   274    271    289 1
   275    273    274 1
   276    273    275 1
   277    273    287 1
   278    275    276 1
   279    275    277 1
   280    275    285 1
   281    277    278 1
   282    277    279 1
   283    277    284 1
   284    279    280 1
   285    279    281 1
   286    279    282 1
   287    282    283 1
   288    285    286 1
   289    287    288 1
   290    289    290 1
   291    291    292 1
   292    291    293 1
   293    291    308 1
   294    293    294 1
   295    294    295 1
   296    294    296 1
   297    294    300 1
   298    296    297 1
   299    296    298 1
   300    296    299 1
   301    300    301 1
   302    300    302 1
   303    300    304 1
   304    302    303 1
   305    304    305 1
   306    304    306 1
   307    304    308 1
   308    306    307 1
   309    308    309 1
   310    308    310 1
   311    310    311 1
   312    312    313 1
   313    312    314 1
   314    312    326 1
   315    314    315 1
   316    314    316 1
   317    314    331 1
   318    316    317 1
   319    316    318 1
   320    316    329 1
   321    318    319 1
   322    318    320 1
   323    318    327 1
   324    320    321 1
   325    320    322 1
   326    320    326 1
   327    322    323 1
   328    322    324 1
   329    322    325 1
   330    327    328 1
   331    329    330 1
   332    331    332 1
   333    333    334 1
   334    333    346 1
   335    333    350 1
   336    334    335 1
   337    335    336 1
   338    335    337 1
   339    335    338 1
   340    338    339 1
   341    338    340 1
   342    338    342 1
   343    340    341 1
   344    342    343 1
   345    342    344 1
   346    342    346 1
   347    344    345 1
   348    346    347 1
   349    346    348 1
   350    348    349 1
   351    350    351 1
   352    350    352 1
   353    350    353 1
   354    353    354 1
   355    355    356 1
   356    355    361 1
   357    355    370 1
   358    356    357 1
   359    356    358 1
   360    356    359 1
   361    359    360 1
   362    361    362 1
   363    361    363 1
   364    361    375 1
   365    363    364 1
   366    363    365 1
   367    363    373 1
   368    365    366 1
   369    365    367 1
   370    365    371 1
   371    367    368 1
   372    367    369 1
   373    367    370 1
   374    371    372 1
   375    373    374 1
   376    375    376 1
   377    377    378 1
   378    377    379 1
   379    377    395 1
   380    379    380 1
   381    380    381 1
   382    380    382 1
   383    380    387 1
   384    382    383 1
   385    382    384 1
   386    382    385 1
   387    385    386 1
   388    387    388 1
   389    387    389 1
   390    387    391 1
   391    389    390 1
   392    391    392 1
   393    391    393 1
   394    391    395 1
   395    393    394 1
   396    395    396 1
   397    395    397 1
   398    397    398 1
   399    399    400 1
   400    399    401 1
   401    399    414 1
   402    401    402 1
   403    401    403 1
   404    401    419 1
   405    403    404 1
   406    403    405 1
   407    403    417 1
   408    405    406 1
   409    405    407 1
   410    405    415 1
   411    407    408 1
   412    407    409 1
   413    407    414 1
   414    409    410 1
   415    409    411 1
   416    409    412 1
   417    412    413 1
   418    415    416 1
   419    417    418 1
   420    419    420 1
   421    421    422 1
   422    421    423 1
   423    421    439 1
   424    423    424 1
   425    424    425 1
   426    424    426 1
   427    424    431 1
   428    426    427 1
   429    426    428 1
   430    426    429 1
   431    429    430 1
   432    431    432 1
   433    431    433 1
   434    431    435 1
   435    433    434 1
   436    435    436 1
   437    435    437 1
   438    435    439 1
   439    437    438 1
   440    439    440 1
   441    439    441 1
   442    441    442 1
   443    443    444 1
   444    443    445 1
   445    443    458 1
   446    445    446 1
   447    445    447 1
   448    445    463 1
   449    447    448 1
   450    447    449 1
   451    447    461 1
   452    449    450 1
   453    449    451 1
   454    449    459 1
   455    451    452 1
   456    451    453 1
   457    451    458 1
   458    453    454 1
   459    453    455 1
   460    453    456 1
   461    456    457 1
   462    459    460 1
   463    461    462 1
   464    463    464 1
   465    465    466 1
   466    465    467 1
   467    465    483 1
   468    467    468 1
   469    468    469 1
   470    468    470 1
   471    468    475 1
   472    470    471 1
   473    470    472 1
   474    470    473 1
   475    473    474 1
   476    475    476 1
   477    475    477 1
   478    475    479 1
   479    477    478 1
   480    479    480 1
   481    479    481 1
   482    479    483 1
   483    481    482 1
   484    483    484 1
   485    483    485 1
   486    485    486 1
   487    487    488 1
   488    487    489 1
   489    487    502 1
   490    489    490 1
   491    489    491 1
   492    489    507 1
   493    491    492 1
   494    491    493 1
   495    491    505 1
   496    493    494 1
   497    493    495 1
   498    493    503 1
   499    495    496 1
   500    495    497 1
   501    495    502 1
   502    497    498 1
   503    497    499 1
   504    497    500 1
   505    500    501 1
   506    503    504 1
   507    505    506 1
   508    507    508 1
   509    509    510 1
   510    509    511 1
   511    509    527 1
   512    511    512 1
   513    512    513 1
   514    512    514 1
   515    512    519 1
   516    514    515 1
   517    514    516 1
   518    514    517 1
   519    517    518 1
   520    519    520 1
   521    519    521 1
   522    519    523 1
   523    521    522 1
   524    523    524 1
   525    523    525 1
   526    523    527 1
   527    525    526 1
   528    527    528 1
   529    527    529 1
   530    529    530 1
   531    531    532 1
   532    531    533 1
   533    531    546 1
   534    533    534 1
   535    533    535 1
   536    533    551 1
   537    535    536 1
   538    535    537 1
   539    535    549 1
   540    537    538 1
   541    537    539 1
   542    537    547 1
   543    539    540 1
   544    539    541 1
   545    539    546 1
   546    541    542 1
   547    541    543 1
   548    541    544 1
   549    544    545 1
   550    547    548 1
   551    549    550 1
   552    551    552 1
   553    553    554 1
   554    553    555 1
   555    553    569 1
   556    555    556 1
   557    556    557 1
   558    556    558 1
   559    556    561 1
   560    558    559 1
   561    558    560 1
   562    561    562 1
   563    561    563 1
   564    561    565 1
   565    563    564 1
   566    565    566 1
   567    565    567 1
   568    565    569 1
   569    567    568 1
   570    569    570 1
   571    569    571 1
   572    571    572 1
   573    573    574 1
   574    573    575 1
   575    573    586 1
   576    575    576 1
   577    575    577 1
   578    575    591 1
   579    577    578 1
   580    577    579 1
   581    577    589 1
   582    579    580 1
   583    579    581 1
   584    579    587 1
   585    581    582 1
   586    581    583 1
   587    581    586 1
   588    583    584 1
   589    583    585 1
   590    587    588 1
   591    589    590 1
   592    591    592 1
   593    593    594 1
   594    593    606 1
   595    593    610 1
   596    594    595 1
   597    595    596 1
   598    595    597 1
   599    595    598 1
   600    598    599 1
   601    598    600 1
   602    598    602 1
   603    600    601 1
   604    602    603 1
   605    602    604 1
   606    602    606 1
   607    604    605 1
   608    606    607 1
   609    606    608 1
   610    608    609 1
   611    610    611 1
   612    610    612 1
   613    610    613 1
   614    613    614 1
   615    615    616 1
   616    615    621 1
   617    615    630 1
   618    616    617 1
   619    616    618 1
   620    616    619 1
   621    619    620 1
   622    621    622 1
   623    621    623 1
   624    621    635 1
   625    623    624 1
   626    623    625 1
   627    623    633 1
   628    625    626 1
   629    625    627 1
   630    625    631 1
   631    627    628 1
   632    627    629 1
   633    627    630 1
   634    631    632 1
   635    633    634 1
   636    635    636 1
   637    637    638 1
   638    637    639 1
   639    637    654 1
   640    639    640 1
   641    640    641 1
   642    640    642 1
   643    640    646 1
   644    642    643 1
   645    642    644 1
   646    642    645 1
   647    646    647 1
   648    646    648 1
   649    646    650 1
   650    648    649 1
   651    650    651 1
   652    650    652 1
   653    650    654 1
   654    652    653 1
   655    654    655 1
   656    654    656 1
   657    656    657 1
   658    658    659 1
   659    658    660 1
   660    658    672 1
   661    660    661 1
   662    660    662 1
   663    660    677 1
   664    662    663 1
   665    662    664 1
   666    662    675 1
   667    664    665 1
   668    664    666 1
   669    664    673 1
   670    666    667 1
   671    666    668 1
   672    666    672 1
   673    668    669 1
   674    668    670 1
   675    668    671 1
   676    673    674 1
   677    675    676 1
   678    677    678 1
   679    679    680 1
   680    679    681 1
   681    679    693 1
   682    681    682 1
   683    682    683 1
   684    682    684 1
   685    682    685 1
   686    685    686 1
   687    685    687 1
   688    685    689 1
   689    687    688 1
   690    689    690 1
   691    689    691 1
   692    689    693 1
   693    691    692 1
   694    693    694 1
   695    693    695 1
   696    695    696 1
   697    697    698 1
   698    697    699 1
   699    697    708 1
   700    699    700 1
   701    699    701 1
   702    699    713 1
   703    701    702 1
   704    701    703 1
   705    701    711 1
   706    703    704 1
   707    703    705 1
   708    703    709 1
   709    705    706 1
   710    705    707 1
   711    705    708 1
   712    709    710 1
   713    711    712 1
   714    713    714 1
   715    715    716 1
   716    715    746 1
   717    715    749 1
   718    716    717 1
   719    717    718 1
   720    717    719 1
   721    717    732 1
   722    719    720 1
   723    719    721 1
   724    719    723 1
   725    721    722 1
   726    723    724 1
   727    723    725 1
   728    723    727 1
   729    725    726 1
   730    727    728 1
   731    727    729 1
   732    727    730 1
   733    730    731 1
   734    732    733 1
   735    732    734 1
   736    732    742 1
   737    734    735 1
   738    734    736 1
   739    736    737 1
   740    736    738 1
   741    738    739 1
   742    738    740 1
   743    738    741 1
   744    742    743 1
   745    742    744 1
   746    742    746 1
   747    744    745 1
   748    746    747 1
   749    746    748 1
   750    749    750 1
   751    749    751 1
   752    752    753 1
   753    752    756 1
   754    752    778 1
   755    753    754 1
   756    753    755 1
   757    756    757 1
   758    756    758 1
   759    756    759 1
   760    759    760 1
   761    759    761 1
   762    759    787 1
   763    761    762 1
   764    761    763 1
   765    761    779 1
   766    763    764 1
   767    763    765 1
   768    763    778 1
   769    765    766 1
   770    765    767 1
   771    765    776 1
   772    767    768 1
   773    767    769 1
   774    767    774 1
   775    769    770 1
   776    769    771 1
   777    769    772 1
   778    772    773 1
   779    774    775 1
   780    776    777 1
   781    779    780 1
   782    779    781 1
   783    781    782 1
   784    781    786 1
   785    782    783 1
   786    782    784 1
   787    782    785 1
   788    787    788 1
   789    789    790 1
   790    789    791 1
   791    789    807 1
   792    791    792 1
   793    792    793 1
   794    792    794 1
   795    792    799 1
   796    794    795 1
   797    794    796 1
   798    794    797 1
   799    797    798 1
   800    799    800 1
   801    799    801 1
   802    799    803 1
   803    801    802 1
   804    803    804 1
   805    803    805 1
   806    803    807 1
   807    805    806 1
   808    807    808 1
   809    807    809 1
   810    809    810 1
   811    811    812 1
   812    811    813 1
   813    811    826 1
   814    813    814 1
   815    813    815 1
   816    813    831 1
   817    815    816 1
   818    815    817 1
   819    815    829 1
   820    817    818 1
   821    817    819 1
   822    817    827 1
   823    819    820 1
   824    819    821 1
   825    819    826 1
   826    821    822 1
   827    821    823 1
   828    821    824 1
   829    824    825 1
   830    827    828 1
   831    829    830 1
   832    831    832 1
   833    833    834 1
   834    833    835 1
   835    833    849 1
   836    835    836 1
   837    836    837 1
   838    836    838 1
   839    836    841 1
   840    838    839 1
   841    838    840 1
   842    841    842 1
   843    841    843 1
   844    841    845 1
   845    843    844 1
   846    845    846 1
   847    845    847 1
   848    845    849 1
   849    847    848 1
   850    849    850 1
   851    849    851 1
   852    851    852 1
   853    853    854 1
   854    853    855 1
   855    853    866 1
   856    855    856 1
   857    855    857 1
   858    855    871 1
   859    857    858 1
   860    857    859 1
   861    857    869 1
   862    859    860 1
   863    859    861 1
   864    859    867 1
   865    861    862 1
   866    861    863 1
   867    861    866 1
   868    863    864 1
   869    863    865 1
   870    867    868 1
   871    869    870 1
   872    871    872 1
   873    873    874 1
   874    873    875 1
   875    873    891 1
   876    875    876 1
   877    876    877 1
   878    876    878 1
   879    876    883 1
   880    878    879 1
   881    878    880 1
   882    878    881 1
   883    881    882 1
   884    883    884 1
   885    883    885 1
   886    883    887 1
   887    885    886 1
   888    887    888 1
   889    887    889 1
   890    887    891 1
   891    889    890 1
   892    891    892 1
   893    891    893 1
   894    893    894 1
   895    893    895 1
   896    895    896 1
   897    895    897 1
   898    897    898 1
   899    897    899 1
   900    897    900 1
   901    901    902 1
   902    901    903 1
   903    901    916 1
   904    903    904 1
   905    903    905 1
   906    903    921 1
   907    905    906 1
   908    905    907 1
   909    905    919 1
   910    907    908 1
   911    907    909 1
   912    907    917 1
   913    909    910 1
   914    909    911 1
   915    909    916 1
   916    911    912 1
   917    911    913 1
   918    911    914 1
   919    914    915 1
   920    917    918 1
   921    919    920 1
   922    921    922 1
   923    921    923 1
   924    923    924 1
   925    923    928 1
   926    924    925 1
   927    924    926 1
   928    924    927 1
   929    929    930 1
   930    929    931 1
   931    929    947 1
   932    931    932 1
   933    932    933 1
   934    932    934 1
   935    932    939 1
   936    934    935 1
   937    934    936 1
   938    934    937 1
   939    937    938 1
   940    939    940 1
   941    939    941 1
   942    939    943 1
   943    941    942 1
   944    943    944 1
   945    943    945 1
   946    943    947 1
   947    945    946 1
   948    947    948 1
   949    947    949 1
   950    949    950 1
   951    949    951 1
   952    951    952 1
   953    951    953 1
   954    953    954 1
   955    953    955 1
   956    953    956 1
   957    957    958 1
   958    957    959 1
   959    957    972 1
   960    959    960 1
   961    959    961 1
   962    959    977 1
   963    961    962 1
   964    961    963 1
   965    961    975 1
   966    963    964 1
   967    963    965 1
   968    963    973 1
   969    965    966 1
   970    965    967 1
   971    965    972 1
   972    967    968 1
   973    967    969 1
   974    967    970 1
   975    970    971 1
   976    973    974 1
   977    975    976 1
   978    977    978 1
   979    977    979 1
   980    979    980 1
   981    979    984 1
   982    980    981 1
   983    980    982 1
   984    980    983 1
   985    985    986 1
   986    985    987 1
   987    985    999 1
   988    987    988 1
   989    988    989 1
   990    988    990 1
   991    988    991 1
   992    991    992 1
   993    991    993 1
   994    991    995 1
   995    993    994 1
   996    995    996 1
   997    995    997 1
   998    995    999 1
   999    997    998 1
  1000    999   1000 1
  1001    999   1001 1
  1002   1001   1002 1
  1003   1003   1004 1
  1004   1003   1005 1
  1005   1003   1014 1
  1006   1005   1006 1
  1007   1005   1007 1
  1008   1005   1019 1
  1009   1007   1008 1
  1010   1007   1009 1
  1011   1007   1017 1
  1012   1009   1010 1
  1013   1009   1011 1
  1014   1009   1015 1
  1015   1011   1012 1
  1016   1011   1013 1
  1017   1011   1014 1
  1018   1015   1016 1
  1019   1017   1018 1
  1020   1019   1020 1
  1021   1021   1022 1
  1022   1021   1023 1
  1023   1021   1039 1
  1024   1023   1024 1
  1025   1024   1025 1
  1026   1024   1026 1
  1027   1024   1031 1
  1028   1026   1027 1
  1029   1026   1028 1
  1030   1026   1029 1
  1031   1029   1030 1
  1032   1031   1032 1
  1033   1031   1033 1
  1034   1031   1035 1
  1035   1033   1034 1
  1036   1035   1036 1
  1037   1035   1037 1
  1038   1035   1039 1
  1039   1037   1038 1
  1040   1039   1040 1
  1041   1039   1041 1
  1042   1041   1042 1
  1043   1041   1043 1
  1044   1043   1044 1
  1045   1043   1045 1
  1046   1045   1046 1
  1047   1045   1047 1
  1048   1045   1048 1
  1049   1049   1050 1
  1050   1049   1051 1
  1051   1049   1064 1
  1052   1051   1052 1
  1053   1051   1053 1
  1054   1051   1069 1
  1055   1053   1054 1
  1056   1053   1055 1
  1057   1053   1067 1
  1058   1055   1056 1
  1059   1055   1057 1
  1060   1055   1065 1
  1061   1057   1058 1
  1062   1057   1059 1
  1063   1057   1064 1
  1064   1059   1060 1
  1065   1059   1061 1
  1066   1059   1062 1
  1067   1062   1063 1
  1068   1065   1066 1
  1069   1067   1068 1
  1070   1069   1070 1
  1071   1069   1071 1
  1072   1071   1072 1
  1073   1071   1076 1
  1074   1072   1073 1
  1075   1072   1074 1
  1076   1072   1075 1
  1077   1077   1078 1
  1078   1077   1079 1
  1079   1077   1093 1
  1080   1079   1080 1
  1081   1080   1081 1
  1082   1080   1082 1
  1083   1080   1085 1
  1084   1082   1083 1
  1085   1082   1084 1
  1086   1085   1086 1
  1087   1085   1087 1
  1088   1085   1089 1
  1089   1087   1088 1
  1090   1089   1090 1
  1091   1089   1091 1
  1092   1089   1093 1
  1093   1091   1092 1
  1094   1093   1094 1
  1095   1093   1095 1
  1096   1095   1096 1
  1097   1097   1098 1
  1098   1097   1099 1
  1099   1097   1110 1
  1100   1099   1100 1
  1101   1099   1101 1
  1102   1099   1115 1
  1103   1101   1102 1
  1104   1101   1103 1
  1105   1101   1113 1
  1106   1103   1104 1
  1107   1103   1105 1
  1108   1103   1111 1
  1109   1105   1106 1
  1110   1105   1107 1
  1111   1105   1110 1
  1112   1107   1108 1
  1113   1107   1109 1
  1114   1111   1112 1
  1115   1113   1114 1
  1116   1115   1116 1
  1117   1117   1118 1
  1118   1118   1119 1
  1119   1118   1120 1
  1120   1118   1132 1
  1121   1120   1121 1
  1122   1121   1122 1
  1123   1121   1123 1
  1124   1121   1124 1
  1125   1124   1125 1
  1126   1124   1126 1
  1127   1124   1128 1
  1128   1126   1127 1
  1129   1128   1129 1
  1130   1128   1130 1
  1131   1128   1132 1
  1132   1130   1131 1
  1133   1132   1133 1
  1134   1132   1134 1
  1135   1134   1135 1
  1136   1136   1137 1
  1137   1137   1138 1
  1138   1137   1139 1
  1139   1137   1148 1
  1140   1139   1140 1
  1141   1139   1141 1
  1142   1139   1153 1
  1143   1141   1142 1
  1144   1141   1143 1
  1145   1141   1151 1
  1146   1143   1144 1
  1147   1143   1145 1
  1148   1143   1149 1
  1149   1145   1146 1
  1150   1145   1147 1
  1151   1145   1148 1
  1152   1149   1150 1
  1153   1151   1152 1
  1154   1153   1154 1
  1155   1155   1156 1
  1156   1155   1168 1
  1157   1155   1172 1
  1158   1156   1157 1
  1159   1157   1158 1
  1160   1157   1159 1
  1161   1157   1160 1
  1162   1160   1161 1
  1163   1160   1162 1
  1164   1160   1164 1
  1165   1162   1163 1
  1166   1164   1165 1
  1167   1164   1166 1
  1168   1164   1168 1
  1169   1166   1167 1
  1170   1168   1169 1
  1171   1168   1170 1
  1172   1170   1171 1
  1173   1172   1173 1
  1174   1172   1174 1
  1175   1172   1175 1
  1176   1176   1177 1
  1177   1176   1186 1
  1178   1176   1193 1
  1179   1177   1178 1
  1180   1177   1179 1
  1181   1177   1191 1
  1182   1179   1180 1
  1183   1179   1181 1
  1184   1179   1189 1
  1185   1181   1182 1
  1186   1181   1183 1
  1187   1181   1187 1
  1188   1183   1184 1
  1189   1183   1185 1
  1190   1183   1186 1
  1191   1187   1188 1
  1192   1189   1190 1
  1193   1191   1192 1
  1194   1193   1194 1
  1195   1193   1195 1
  1196   1193   1196 1
  1197   1197   1198 1
  1198   1197   1210 1
  1199   1197   1214 1
  1200   1198   1199 1
  1201   1199   1200 1
  1202   1199   1201 1
  1203   1199   1202 1
  1204   1202   1203 1
  1205   1202   1204 1
  1206   1202   1206 1
  1207   1204   1205 1
  1208   1206   1207 1
  1209   1206   1208 1
  1210   1206   1210 1
  1211   1208   1209 1
  1212   1210   1211 1
  1213   1210   1212 1
  1214   1212   1213 1
  1215   1214   1215 1
  1216   1214   1216 1
  1217   1214   1217 1
  1218   1218   1219 1
  1219   1218   1228 1
  1220   1218   1235 1
  1221   1219   1220 1
  1222   1219   1221 1
  1223   1219   1233 1
  1224   1221   1222 1
  1225   1221   1223 1
  1226   1221   1231 1
  1227   1223   1224 1
  1228   1223   1225 1
  1229   1223   1229 1
  1230   1225   1226 1
  1231   1225   1227 1
  1232   1225   1228 1
  1233   1229   1230 1
  1234   1231   1232 1
  1235   1233   1234 1
  1236   1235   1236 1
  1237   1235   1237 1
  1238   1235   1238 1
  1239   1239   1240 1
  1240   1240   1241 1
  1241   1240   1242 1
  1242   1240   1254 1
  1243   1242   1243 1
  1244   1243   1244 1
  1245   1243   1245 1
  1246   1243   1246 1
  1247   1246   1247 1
  1248   1246   1248 1
  1249   1246   1250 1
  1250   1248   1249 1
  1251   1250   1251 1
  1252   1250   1252 1
  1253   1250   1254 1
  1254   1252   1253 1
  1255   1254   1255 1
  1256   1254   1256 1
  1257   1256   1257 1
  1258   1258   1259 1
  1259   1259   1260 1
  1260   1259   1261 1
  1261   1259   1270 1
  1262   1261   1262 1
  1263   1261   1263 1
  1264   1261   1275 1
  1265   1263   1264 1
  1266   1263   1265 1
  1267   1263   1273 1
  1268   1265   1266 1
  1269   1265   1267 1
  1270   1265   1271 1
  1271   1267   1268 1
  1272   1267   1269 1
  1273   1267   1270 1
  1274   1271   1272 1
  1275   1273   1274 1
  1276   1275   1276 1
  1277   1277   1278 1
  1278   1278   1279 1
  1279   1278   1280 1
  1280   1278   1296 1
  1281   1280   1281 1
  1282   1281   1282 1
  1283   1281   1283 1
  1284   1281   1288 1
  1285   1283   1284 1
  1286   1283   1285 1
  1287   1283   1286 1
  1288   1286   1287 1
  1289   1288   1289 1
  1290   1288   1290 1
  1291   1288   1292 1
  1292   1290   1291 1
  1293   1292   1293 1
  1294   1292   1294 1
  1295   1292   1296 1
  1296   1294   1295 1
  1297   1296   1297 1
  1298   1296   1298 1
  1299   1298   1299 1
  1300   1300   1301 1
  1301   1301   1302 1
  1302   1301   1303 1
  1303   1301   1316 1
  1304   1303   1304 1
  1305   1303   1305 1
  1306   1303   1321 1
  1307   1305   1306 1
  1308   1305   1307 1
  1309   1305   1319 1
  1310   1307   1308 1
  1311   1307   1309 1
  1312   1307   1317 1
  1313   1309   1310 1
  1314   1309   1311 1
  1315   1309   1316 1
  1316   1311   1312 1
  1317   1311   1313 1
  1318   1311   1314 1
  1319   1314   1315 1
  1320   1317   1318 1
  1321   1319   1320 1
  1322   1321   1322 1
  1323   1323   1324 1
  1324   1324   1325 1
  1325   1324   1326 1
  1326   1324   1341 1
  1327   1326   1327 1
  1328   1327   1328 1
  1329   1327   1329 1
  1330   1327   1333 1
  1331   1329   1330 1
  1332   1329   1331 1
  1333   1329   1332 1
  1334   1333   1334 1
  1335   1333   1335 1
  1336   1333   1337 1
  1337   1335   1336 1
  1338   1337   1338 1
  1339   1337   1339 1
  1340   1337   1341 1
  1341   1339   1340 1
  1342   1341   1342 1
  1343   1341   1343 1
  1344   1343   1344 1
  1345   1345   1346 1
  1346   1346   1347 1
  1347   1346   1348 1
  1348   1346   1360 1
  1349   1348   1349 1
  1350   1348   1350 1
  1351   1348   1365 1
  1352   1350   1351 1
  1353   1350   1352 1
  1354   1350   1363 1
  1355   1352   1353 1
  1356   1352   1354 1
  1357   1352   1361 1
  1358   1354   1355 1
  1359   1354   1356 1
  1360   1354   1360 1
  1361   1356   1357 1
  1362   1356   1358 1
  1363   1356   1359 1
  1364   1361   1362 1
  1365   1363   1364 1
  1366   1365   1366 1
  1367   1367   1368 1
  1368   1368   1369 1
  1369   1368   1370 1
  1370   1368   1386 1
  1371   1370   1371 1
  1372   1371   1372 1
  1373   1371   1373 1
  1374   1371   1378 1
  1375   1373   1374 1
  1376   1373   1375 1
  1377   1373   1376 1
  1378   1376   1377 1
  1379   1378   1379 1
  1380   1378   1380 1
  1381   1378   1382 1
  1382   1380   1381 1
  1383   1382   1383 1
  1384   1382   1384 1
  1385   1382   1386 1
  1386   1384   1385 1
  1387   1386   1387 1
  1388   1386   1388 1
  1389   1388   1389 1
  1390   1390   1391 1
  1391   1391   1392 1
  1392   1391   1393 1
  1393   1391   1406 1
  1394   1393   1394 1
  1395   1393   1395 1
  1396   1393   1411 1
  1397   1395   1396 1
  1398   1395   1397 1
  1399   1395   1409 1
  1400   1397   1398 1
  1401   1397   1399 1
  1402   1397   1407 1
  1403   1399   1400 1
  1404   1399   1401 1
  1405   1399   1406 1
  1406   1401   1402 1
  1407   1401   1403 1
  1408   1401   1404 1
  1409   1404   1405 1
  1410   1407   1408 1
  1411   1409   1410 1
  1412   1411   1412 1
  1413   1413   1414 1
  1414   1414   1415 1
  1415   1414   1416 1
  1416   1414   1431 1
  1417   1416   1417 1
  1418   1417   1418 1
  1419   1417   1419 1
  1420   1417   1423 1
  1421   1419   1420 1
  1422   1419   1421 1
  1423   1419   1422 1
  1424   1423   1424 1
  1425   1423   1425 1
  1426   1423   1427 1
  1427   1425   1426 1
  1428   1427   1428 1
  1429   1427   1429 1
  1430   1427   1431 1
  1431   1429   1430 1
  1432   1431   1432 1
  1433   1431   1433 1
  1434   1433   1434 1
  1435   1435   1436 1
  1436   1436   1437 1
  1437   1436   1438 1
  1438   1436   1450 1
  1439   1438   1439 1
  1440   1438   1440 1
  1441   1438   1455 1
  1442   1440   1441 1
  1443   1440   1442 1
  1444   1440   1453 1
  1445   1442   1443 1
  1446   1442   1444 1
  1447   1442   1451 1
  1448   1444   1445 1
  1449   1444   1446 1
  1450   1444   1450 1
  1451   1446   1447 1
  1452   1446   1448 1
  1453   1446   1449 1
  1454   1451   1452 1
  1455   1453   1454 1
  1456   1455   1456 1
  1457   1457   1458 1
  1458   1457   1470 1
  1459   1457   1474 1
  1460   1458   1459 1
  1461   1459   1460 1
  1462   1459   1461 1
  1463   1459   1462 1
  1464   1462   1463 1
  1465   1462   1464 1
  1466   1462   1466 1
  1467   1464   1465 1
  1468   1466   1467 1
  1469   1466   1468 1
  1470   1466   1470 1
  1471   1468   1469 1
  1472   1470   1471 1
  1473   1470   1472 1
  1474   1472   1473 1
  1475   1474   1475 1
  1476   1474   1476 1
  1477   1474   1477 1
  1478   1478   1479 1
  1479   1478   1488 1
  1480   1478   1495 1
  1481   1479   1480 1
  1482   1479   1481 1
  1483   1479   1493 1
  1484   1481   1482 1
  1485   1481   1483 1
  1486   1481   1491 1
  1487   1483   1484 1
  1488   1483   1485 1
  1489   1483   1489 1
  1490   1485   1486 1
  1491   1485   1487 1
  1492   1485   1488 1
  1493   1489   1490 1
  1494   1491   1492 1
  1495   1493   1494 1
  1496   1495   1496 1
  1497   1495   1497 1
  1498   1495   1498 1
  1499   1499   1500 1
  1500   1500   1501 1
  1501   1500   1502 1
  1502   1500   1518 1
  1503   1502   1503 1
  1504   1503   1504 1
  1505   1503   1505 1
  1506   1503   1510 1
  1507   1505   1506 1
  1508   1505   1507 1
  1509   1505   1508 1
  1510   1508   1509 1
  1511   1510   1511 1
  1512   1510   1512 1
  1513   1510   1514 1
  1514   1512   1513 1
  1515   1514   1515 1
  1516   1514   1516 1
  1517   1514   1518 1
  1518   1516   1517 1
  1519   1518   1519 1
  1520   1518   1520 1
  1521   1520   1521 1
  1522   1522   1523 1
  1523   1523   1524 1
  1524   1523   1525 1
  1525   1523   1538 1
  1526   1525   1526 1
  1527   1525   1527 1
  1528   1525   1543 1
  1529   1527   1528 1
  1530   1527   1529 1
  1531   1527   1541 1
  1532   1529   1530 1
  1533   1529   1531 1
  1534   1529   1539 1
  1535   1531   1532 1
  1536   1531   1533 1
  1537   1531   1538 1
  1538   1533   1534 1
  1539   1533   1535 1
  1540   1533   1536 1
  1541   1536   1537 1
  1542   1539   1540 1
  1543   1541   1542 1
  1544   1543   1544 1
  1545   1545   1546 1
  1546   1546   1547 1
  1547   1546   1548 1
  1548   1546   1564 1
  1549   1548   1549 1
  1550   1549   1550 1
  1551   1549   1551 1
  1552   1549   1556 1
  1553   1551   1552 1
  1554   1551   1553 1
  1555   1551   1554 1
  1556   1554   1555 1
  1557   1556   1557 1
  1558   1556   1558 1
  1559   1556   1560 1
  1560   1558   1559 1
  1561   1560   1561 1
  1562   1560   1562 1
  1563   1560   1564 1
  1564   1562   1563 1
  1565   1564   1565 1
  1566   1564   1566 1
  1567   1566   1567 1
  1568   1568   1569 1
  1569   1569   1570 1
  1570   1569   1571 1
  1571   1569   1584 1
  1572   1571   1572 1
  1573   1571   1573 1
  1574   1571   1589 1
  1575   1573   1574 1
  1576   1573   1575 1
  1577   1573   1587 1
  1578   1575   1576 1
  1579   1575   1577 1
  1580   1575   1585 1
  1581   1577   1578 1
  1582   1577   1579 1
  1583   1577   1584 1
  1584   1579   1580 1
  1585   1579   1581 1
  1586   1579   1582 1
  1587   1582   1583 1
  1588   1585   1586 1
  1589   1587   1588 1
  1590   1589   1590 1
  1591   1591   1592 1
  1592   1592   1593 1
  1593   1592   1594 1
  1594   1592   1610 1
  1595   1594   1595 1
  1596   1595   1596 1
  1597   1595   1597 1
  1598   1595   1602 1
  1599   1597   1598 1
  1600   1597   1599 1
  1601   1597   1600 1
  1602   1600   1601 1
  1603   1602   1603 1
  1604   1602   1604 1
  1605   1602   1606 1
  1606   1604   1605 1
  1607   1606   1607 1
  1608   1606   1608 1
  1609   1606   1610 1
  1610   1608   1609 1
  1611   1610   1611 1
  1612   1610   1612 1
  1613   1612   1613 1
  1614   1614   1615 1
  1615   1615   1616 1
  1616   1615   1617 1
  1617   1615   1630 1
  1618   1617   1618 1
  1619   1617   1619 1
  1620   1617   1635 1
  1621   1619   1620 1
  1622   1619   1621 1
  1623   1619   1633 1
  1624   1621   1622 1
  1625   1621   1623 1
  1626   1621   1631 1
  1627   1623   1624 1
  1628   1623   1625 1
  1629   1623   1630 1
  1630   1625   1626 1
  1631   1625   1627 1
  1632   1625   1628 1
  1633   1628   1629 1
  1634   1631   1632 1
  1635   1633   1634 1
  1636   1635   1636 1
  1637   1637   1638 1
  1638   1638   1639 1
  1639   1638   1640 1
  1640   1638   1656 1
  1641   1640   1641 1
  1642   1641   1642 1
  1643   1641   1643 1
  1644   1641   1648 1
  1645   1643   1644 1
  1646   1643   1645 1
  1647   1643   1646 1
  1648   1646   1647 1
  1649   1648   1649 1
  1650   1648   1650 1
  1651   1648   1652 1
  1652   1650   1651 1
  1653   1652   1653 1
  1654   1652   1654 1
  1655   1652   1656 1
  1656   1654   1655 1
  1657   1656   1657 1
  1658   1656   1658 1
  1659   1658   1659 1
  1660   1660   1661 1
  1661   1661   1662 1
  1662   1661   1663 1
  1663   1661   1676 1
  1664   1663   1664 1
  1665   1663   1665 1
  1666   1663   1681 1
  1667   1665   1666 1
  1668   1665   1667 1
  1669   1665   1679 1
  1670   1667   1668 1
  1671   1667   1669 1
  1672   1667   1677 1
  1673   1669   1670 1
  1674   1669   1671 1
  1675   1669   1676 1
  1676   1671   1672 1
  1677   1671   1673 1
  1678   1671   1674 1
  1679   1674   1675 1
  1680   1677   1678 1
  1681   1679   1680 1
  1682   1681   1682 1
  1683   1683   1684 1
  1684   1684   1685 1
  1685   1684   1686 1
  1686   1684   1700 1
  1687   1686   1687 1
  1688   1687   1688 1
  1689   1687   1689 1
  1690   1687   1692 1
  1691   1689   1690 1
  1692   1689   1691 1
  1693   1692   1693 1
  1694   1692   1694 1
  1695   1692   1696 1
  1696   1694   1695 1
  1697   1696   1697 1
  1698   1696   1698 1
  1699   1696   1700 1
  1700   1698   1699 1
  1701   1700   1701 1
  1702   1700   1702 1
  1703   1702   1703 1
  1704   1704   1705 1
  1705   1705   1706 1
  1706   1705   1707 1
  1707   1705   1718 1
  1708   1707   1708 1
  1709   1707   1709 1
  1710   1707   1723 1
  1711   1709   1710 1
  1712   1709   1711 1
  1713   1709   1721 1
  1714   1711   1712 1
  1715   1711   1713 1
  1716   1711   1719 1
  1717   1713   1714 1
  1718   1713   1715 1
  1719   1713   1718 1
  1720   1715   1716 1
  1721   1715   1717 1
  1722   1719   1720 1
  1723   1721   1722 1
  1724   1723   1724 1
  1725   1725   1726 1
  1726   1725   1738 1
  1727   1725   1742 1
  1728   1726   1727 1
  1729   1727   1728 1
  1730   1727   1729 1
  1731   1727   1730 1
  1732   1730   1731 1
  1733   1730   1732 1
  1734   1730   1734 1
  1735   1732   1733 1
  1736   1734   1735 1
  1737   1734   1736 1
  1738   1734   1738 1
  1739   1736   1737 1
  1740   1738   1739 1
  1741   1738   1740 1
  1742   1740   1741 1
  1743   1742   1743 1
  1744   1742   1744 1
  1745   1742   1745 1
  1746   1746   1747 1
  1747   1746   1756 1
  1748   1746   1763 1
  1749   1747   1748 1
  1750   1747   1749 1
  1751   1747   1761 1
  1752   1749   1750 1
  1753   1749   1751 1
  1754   1749   1759 1
  1755   1751   1752 1
  1756   1751   1753 1
  1757   1751   1757 1
  1758   1753   1754 1
  1759   1753   1755 1
  1760   1753   1756 1
  1761   1757   1758 1
  1762   1759   1760 1
  1763   1761   1762 1
  1764   1763   1764 1
  1765   1763   1765 1
  1766   1763   1766 1
  1767   1767   1768 1
  1768   1768   1769 1
  1769   1768   1770 1
  1770   1768   1785 1
  1771   1770   1771 1
  1772   1771   1772 1
  1773   1771   1773 1
  1774   1771   1777 1
  1775   1773   1774 1
  1776   1773   1775 1
  1777   1773   1776 1
  1778   1777   1778 1
  1779   1777   1779 1
  1780   1777   1781 1
  1781   1779   1780 1
  1782   1781   1782 1
  1783   1781   1783 1
  1784   1781   1785 1
  1785   1783   1784 1
  1786   1785   1786 1
  1787   1785   1787 1
  1788   1787   1788 1
  1789   1789   1790 1
  1790   1790   1791 1
  1791   1790   1792 1
  1792   1790   1804 1
  1793   1792   1793 1
  1794   1792   1794 1
  1795   1792   1809 1
  1796   1794   1795 1
  1797   1794   1796 1
  1798   1794   1807 1
  1799   1796   1797 1
  1800   1796   1798 1
  1801   1796   1805 1
  1802   1798   1799 1
  1803   1798   1800 1
  1804   1798   1804 1
  1805   1800   1801 1
  1806   1800   1802 1
  1807   1800   1803 1
  1808   1805   1806 1
  1809   1807   1808 1
  1810   1809   1810 1
  1811   1811   1812 1
  1812   1812   1813 1
  1813   1812   1814 1
  1814   1812   1826 1
  1815   1814   1815 1
  1816   1815   1816 1
  1817   1815   1817 1
  1818   1815   1818 1
  1819   1818   1819 1
  1820   1818   1820 1
  1821   1818   1822 1
  1822   1820   1821 1
  1823   1822   1823 1
  1824   1822   1824 1
  1825   1822   1826 1
  1826   1824   1825 1
  1827   1826   1827 1
  1828   1826   1828 1
  1829   1828   1829 1
  1830   1830   1831 1
  1831   1831   1832 1
  1832   1831   1833 1
  1833   1831   1842 1
  1834   1833   1834 1
  1835   1833   1835 1
  1836   1833   1847 1
  1837   1835   1836 1
  1838   1835   1837 1
  1839   1835   1845 1
  1840   1837   1838 1
  1841   1837   1839 1
  1842   1837   1843 1
  1843   1839   1840 1
  1844   1839   1841 1
  1845   1839   1842 1
  1846   1843   1844 1
  1847   1845   1846 1
  1848   1847   1848 1
  1849   1849   1850 1
  1850   1850   1851 1
  1851   1850   1852 1
  1852   1850   1868 1
  1853   1852   1853 1
  1854   1853   1854 1
  1855   1853   1855 1
  1856   1853   1860 1
  1857   1855   1856 1
  1858   1855   1857 1
  1859   1855   1858 1
  1860   1858   1859 1
  1861   1860   1861 1
  1862   1860   1862 1
  1863   1860   1864 1
  1864   1862   1863 1
  1865   1864   1865 1
  1866   1864   1866 1
  1867   1864   1868 1
  1868   1866   1867 1
  1869   1868   1869 1
  1870   1868   1870 1
  1871   1870   1871 1
  1872   1872   1873 1
  1873   1873   1874 1
  1874   1873   1875 1
  1875   1873   1888 1
  1876   1875   1876 1
  1877   1875   1877 1
  1878   1875   1893 1
  1879   1877   1878 1
  1880   1877   1879 1
  1881   1877   1891 1
  1882   1879   1880 1
  1883   1879   1881 1
  1884   1879   1889 1
  1885   1881   1882 1
  1886   1881   1883 1
  1887   1881   1888 1
  1888   1883   1884 1
  1889   1883   1885 1
  1890   1883   1886 1
  1891   1886   1887 1
  1892   1889   1890 1
  1893   1891   1892 1
  1894   1893   1894 1
  1895   1895   1896 1
  1896   1896   1897 1
  1897   1896   1898 1
  1898   1896   1912 1
  1899   1898   1899 1
  1900   1899   1900 1
  1901   1899   1901 1
  1902   1899   1904 1
  1903   1901   1902 1
  1904   1901   1903 1
  1905   1904   1905 1
  1906   1904   1906 1
  1907   1904   1908 1
  1908   1906   1907 1
  1909   1908   1909 1
  1910   1908   1910 1
  1911   1908   1912 1
  1912   1910   1911 1
  1913   1912   1913 1
  1914   1912   1914 1
  1915   1914   1915 1
  1916   1916   1917 1
  1917   1917   1918 1
  1918   1917   1919 1
  1919   1917   1930 1
  1920   1919   1920 1
  1921   1919   1921 1
  1922   1919   1935 1
  1923   1921   1922 1
  1924   1921   1923 1
  1925   1921   1933 1
  1926   1923   1924 1
  1927   1923   1925 1
  1928   1923   1931 1
  1929   1925   1926 1
  1930   1925   1927 1
  1931   1925   1930 1
  1932   1927   1928 1
  1933   1927   1929 1
  1934   1931   1932 1
  1935   1933   1934 1
  1936   1935   1936 1
  1937   1937   1938 1
  1938   1938   1939 1
  1939   1938   1940 1
  1940   1938   1956 1
  1941   1940   1941 1
  1942   1941   1942 1
  1943   1941   1943 1
  1944   1941   1948 1
  1945   1943   1944 1
  1946   1943   1945 1
  1947   1943   1946 1
  1948   1946   1947 1
  1949   1948   1949 1
  1950   1948   1950 1
  1951   1948   1952 1
  1952   1950   1951 1
  1953   1952   1953 1
  1954   1952   1954 1
  1955   1952   1956 1
  1956   1954   1955 1
  1957   1956   1957 1
  1958   1956   1958 1
  1959   1958   1959 1
  1960   1958   1960 1
  1961   1960   1961 1
  1962   1960   1962 1
  1963   1962   1963 1
  1964   1962   1964 1
  1965   1962   1965 1
  1966   1966   1967 1
  1967   1967   1968 1
  1968   1967   1969 1
  1969   1967   1982 1
  1970   1969   1970 1
  1971   1969   1971 1
  1972   1969   1987 1
  1973   1971   1972 1
  1974   1971   1973 1
  1975   1971   1985 1
  1976   1973   1974 1
  1977   1973   1975 1
  1978   1973   1983 1
  1979   1975   1976 1
  1980   1975   1977 1
  1981   1975   1982 1
  1982   1977   1978 1
  1983   1977   1979 1
  1984   1977   1980 1
  1985   1980   1981 1
  1986   1983   1984 1
  1987   1985   1986 1
  1988   1987   1988 1
  1989   1987   1989 1
  1990   1989   1990 1
  1991   1989   1994 1
  1992   1990   1991 1
  1993   1990   1992 1
  1994   1990   1993 1
  1995   1995   1996 1
  1996   1996   1997 1
  1997   1996   1998 1
  1998   1996   2014 1
  1999   1998   1999 1
  2000   1999   2000 1
  2001   1999   2001 1
  2002   1999   2006 1
  2003   2001   2002 1
  2004   2001   2003 1
  2005   2001   2004 1
  2006   2004   2005 1
  2007   2006   2007 1
  2008   2006   2008 1
  2009   2006   2010 1
  2010   2008   2009 1
  2011   2010   2011 1
  2012   2010   2012 1
  2013   2010   2014 1
  2014   2012   2013 1
  2015   2014   2015 1
  2016   2014   2016 1
  2017   2016   2017 1
  2018   2016   2018 1
  2019   2018   2019 1
  2020   2018   2020 1
  2021   2020   2021 1
  2022   2020   2022 1
  2023   2020   2023 1
  2024   2024   2025 1
  2025   2025   2026 1
  2026   2025   2027 1
  2027   2025   2040 1
  2028   2027   2028 1
  2029   2027   2029 1
  2030   2027   2045 1
  2031   2029   2030 1
  2032   2029   2031 1
  2033   2029   2043 1
  2034   2031   2032 1
  2035   2031   2033 1
  2036   2031   2041 1
  2037   2033   2034 1
  2038   2033   2035 1
  2039   2033   2040 1
  2040   2035   2036 1
  2041   2035   2037 1
  2042   2035   2038 1
  2043   2038   2039 1
  2044   2041   2042 1
  2045   2043   2044 1
  2046   2045   2046 1
  2047   2045   2047 1
  2048   2047   2048 1
  2049   2047   2052 1
  2050   2048   2049 1
  2051   2048   2050 1
  2052   2048   2051 1
  2053   2053   2054 1
  2054   2054   2055 1
  2055   2054   2056 1
  2056   2054   2068 1
  2057   2056   2057 1
  2058   2057   2058 1
  2059   2057   2059 1
  2060   2057   2060 1
  2061   2060   2061 1
  2062   2060   2062 1
  2063   2060   2064 1
  2064   2062   2063 1
  2065   2064   2065 1
  2066   2064   2066 1
  2067   2064   2068 1
  2068   2066   2067 1
  2069   2068   2069 1
  2070   2068   2070 1
  2071   2070   2071 1
  2072   2072   2073 1
  2073   2073   2074 1
  2074   2073   2075 1
  2075   2073   2084 1
  2076   2075   2076 1
  2077   2075   2077 1
  2078   2075   2089 1
  2079   2077   2078 1
  2080   2077   2079 1
  2081   2077   2087 1
  2082   2079   2080 1
  2083   2079   2081 1
  2084   2079   2085 1
  2085   2081   2082 1
  2086   2081   2083 1
  2087   2081   2084 1
  2088   2085   2086 1
  2089   2087   2088 1
  2090   2089   2090 1
  2091   2091   2092 1
  2092   2092   2093 1
  2093   2092   2094 1
  2094   2092   2110 1
  2095   2094   2095 1
  2096   2095   2096 1
  2097   2095   2097 1
  2098   2095   2102 1
  2099   2097   2098 1
  2100   2097   2099 1
  2101   2097   2100 1
  2102   2100   2101 1
  2103   2102   2103 1
  2104   2102   2104 1
  2105   2102   2106 1
  2106   2104   2105 1
  2107   2106   2107 1
  2108   2106   2108 1
  2109   2106   2110 1
  2110   2108   2109 1
  2111   2110   2111 1
  2112   2110   2112 1
  2113   2112   2113 1
  2114   2112   2114 1
  2115   2114   2115 1
  2116   2114   2116 1
  2117   2116   2117 1
  2118   2116   2118 1
  2119   2116   2119 1
  2120   2120   2121 1
  2121   2121   2122 1
  2122   2121   2123 1
  2123   2121   2136 1
  2124   2123   2124 1
  2125   2123   2125 1
  2126   2123   2141 1
  2127   2125   2126 1
  2128   2125   2127 1
  2129   2125   2139 1
  2130   2127   2128 1
  2131   2127   2129 1
  2132   2127   2137 1
  2133   2129   2130 1
  2134   2129   2131 1
  2135   2129   2136 1
  2136   2131   2132 1
  2137   2131   2133 1
  2138   2131   2134 1
  2139   2134   2135 1
  2140   2137   2138 1
  2141   2139   2140 1
  2142   2141   2142 1
  2143   2141   2143 1
  2144   2143   2144 1
  2145   2143   2148 1
  2146   2144   2145 1
  2147   2144   2146 1
  2148   2144   2147 1
  2149   2149   2150 1
  2150   2150   2151 1
  2151   2150   2152 1
  2152   2150   2166 1
  2153   2152   2153 1
  2154   2153   2154 1
  2155   2153   2155 1
  2156   2153   2158 1
  2157   2155   2156 1
  2158   2155   2157 1
  2159   2158   2159 1
  2160   2158   2160 1
  2161   2158   2162 1
  2162   2160   2161 1
  2163   2162   2163 1
  2164   2162   2164 1
  2165   2162   2166 1
  2166   2164   2165 1
  2167   2166   2167 1
  2168   2166   2168 1
  2169   2168   2169 1
  2170   2170   2171 1
  2171   2171   2172 1
  2172   2171   2173 1
  2173   2171   2184 1
  2174   2173   2174 1
  2175   2173   2175 1
  2176   2173   2189 1
  2177   2175   2176 1
  2178   2175   2177 1
  2179   2175   2187 1
  2180   2177   2178 1
  2181   2177   2179 1
  2182   2177   2185 1
  2183   2179   2180 1
  2184   2179   2181 1
  2185   2179   2184 1
  2186   2181   2182 1
  2187   2181   2183 1
  2188   2185   2186 1
  2189   2187   2188 1
  2190   2189   2190 1
  2191   2191   2192 1
  2192   2191   2193 1
  2193   2191   2205 1
  2194   2193   2194 1
  2195   2194   2195 1
  2196   2194   2196 1
  2197   2194   2197 1
  2198   2197   2198 1
  2199   2197   2199 1
  2200   2197   2201 1
  2201   2199   2200 1
  2202   2201   2202 1
  2203   2201   2203 1
  2204   2201   2205 1
  2205   2203   2204 1
  2206   2205   2206 1
  2207   2205   2207 1
  2208   2208   2209 1
  2209   2208   2210 1
  2210   2208   2219 1
  2211   2210   2211 1
  2212   2210   2212 1
  2213   2210   2224 1
  2214   2212   2213 1
  2215   2212   2214 1
  2216   2212   2222 1
  2217   2214   2215 1
  2218   2214   2216 1
  2219   2214   2220 1
  2220   2216   2217 1
  2221   2216   2218 1
  2222   2216   2219 1
  2223   2220   2221 1
  2224   2222   2223 1
  2225   2225   2226 1
  2226   2226   2227 1
  2227   2226   2239 1
  2228   2226   2243 1
  2229   2227   2228 1
  2230   2228   2229 1
  2231   2228   2230 1
  2232   2228   2231 1
  2233   2231   2232 1
  2234   2231   2233 1
  2235   2231   2235 1
  2236   2233   2234 1
  2237   2235   2236 1
  2238   2235   2237 1
  2239   2235   2239 1
  2240   2237   2238 1
  2241   2239   2240 1
  2242   2239   2241 1
  2243   2241   2242 1
  2244   2243   2244 1
  2245   2243   2245 1
  2246   2243   2246 1
  2247   2246   2247 1
  2248   2248   2249 1
  2249   2249   2250 1
  2250   2249   2255 1
  2251   2249   2264 1
  2252   2250   2251 1
  2253   2250   2252 1
  2254   2250   2253 1
  2255   2253   2254 1
  2256   2255   2256 1
  2257   2255   2257 1
  2258   2255   2269 1
  2259   2257   2258 1
  2260   2257   2259 1
  2261   2257   2267 1
  2262   2259   2260 1
  2263   2259   2261 1
  2264   2259   2265 1
  2265   2261   2262 1
  2266   2261   2263 1
  2267   2261   2264 1
  2268   2265   2266 1
  2269   2267   2268 1
  2270   2269   2270 1
  2271   2271   2272 1
  2272   2272   2273 1
  2273   2272   2285 1
  2274   2272   2289 1
  2275   2273   2274 1
  2276   2274   2275 1
  2277   2274   2276 1
  2278   2274   2277 1
  2279   2277   2278 1
  2280   2277   2279 1
  2281   2277   2281 1
  2282   2279   2280 1
  2283   2281   2282 1
  2284   2281   2283 1
  2285   2281   2285 1
  2286   2283   2284 1
  2287   2285   2286 1
  2288   2285   2287 1
  2289   2287   2288 1
  2290   2289   2290 1
  2291   2289   2291 1
  2292   2289   2292 1
  2293   2292   2293 1
  2294   2294   2295 1
  2295   2295   2296 1
  2296   2295   2301 1
  2297   2295   2310 1
  2298   2296   2297 1
  2299   2296   2298 1
  2300   2296   2299 1
  2301   2299   2300 1
  2302   2301   2302 1
  2303   2301   2303 1
  2304   2301   2315 1
  2305   2303   2304 1
  2306   2303   2305 1
  2307   2303   2313 1
  2308   2305   2306 1
  2309   2305   2307 1
  2310   2305   2311 1
  2311   2307   2308 1
  2312   2307   2309 1
  2313   2307   2310 1
  2314   2311   2312 1
  2315   2313   2314 1
  2316   2315   2316 1
  2317   2317   2318 1
  2318   2317   2319 1
  2319   2317   2331 1
  2320   2319   2320 1
  2321   2320   2321 1
  2322   2320   2322 1
  2323   2320   2323 1
  2324   2323   2324 1
  2325   2323   2325 1
  2326   2323   2327 1
  2327   2325   2326 1
  2328   2327   2328 1
  2329   2327   2329 1
  2330   2327   2331 1
  2331   2329   2330 1
  2332   2331   2332 1
  2333   2331   2333 1
  2334   2334   2335 1
  2335   2334   2336 1
  2336   2334   2345 1
  2337   2336   2337 1
  2338   2336   2338 1
  2339   2336   2350 1
  2340   2338   2339 1
  2341   2338   2340 1
  2342   2338   2348 1
  2343   2340   2341 1
  2344   2340   2342 1
  2345   2340   2346 1
  2346   2342   2343 1
  2347   2342   2344 1
  2348   2342   2345 1
  2349   2346   2347 1
  2350   2348   2349 1
  2351   2351   2352 1
  2352   2351   2353 1
  2353   2351   2369 1
  2354   2353   2354 1
  2355   2354   2355 1
  2356   2354   2356 1
  2357   2354   2361 1
  2358   2356   2357 1
  2359   2356   2358 1
  2360   2356   2359 1
  2361   2359   2360 1
  2362   2361   2362 1
  2363   2361   2363 1
  2364   2361   2365 1
  2365   2363   2364 1
  2366   2365   2366 1
  2367   2365   2367 1
  2368   2365   2369 1
  2369   2367   2368 1
  2370   2369   2370 1
  2371   2369   2371 1
  2372   2372   2373 1
  2373   2372   2374 1
  2374   2372   2387 1
  2375   2374   2375 1
  2376   2374   2376 1
  2377   2374   2392 1
  2378   2376   2377 1
  2379   2376   2378 1
  2380   2376   2390 1
  2381   2378   2379 1
  2382   2378   2380 1
  2383   2378   2388 1
  2384   2380   2381 1
  2385   2380   2382 1
  2386   2380   2387 1
  2387   2382   2383 1
  2388   2382   2384 1
  2389   2382   2385 1
  2390   2385   2386 1
  2391   2388   2389 1
  2392   2390   2391 1
  2393   2393   2394 1
  2394   2393   2395 1
  2395   2393   2410 1
  2396   2395   2396 1
  2397   2396   2397 1
  2398   2396   2398 1
  2399   2396   2402 1
  2400   2398   2399 1
  2401   2398   2400 1
  2402   2398   2401 1
  2403   2402   2403 1
  2404   2402   2404 1
  2405   2402   2406 1
  2406   2404   2405 1
  2407   2406   2407 1
  2408   2406   2408 1
  2409   2406   2410 1
  2410   2408   2409 1
  2411   2410   2411 1
  2412   2410   2412 1
  2413   2413   2414 1
  2414   2413   2415 1
  2415   2413   2427 1
  2416   2415   2416 1
  2417   2415   2417 1
  2418   2415   2432 1
  2419   2417   2418 1
  2420   2417   2419 1
  2421   2417   2430 1
  2422   2419   2420 1
  2423   2419   2421 1
  2424   2419   2428 1
  2425   2421   2422 1
  2426   2421   2423 1
  2427   2421   2427 1
  2428   2423   2424 1
  2429   2423   2425 1
  2430   2423   2426 1
  2431   2428   2429 1
  2432   2430   2431 1
  2433   2433   2434 1
  2434   2433   2435 1
  2435   2433   2451 1
  2436   2435   2436 1
  2437   2436   2437 1
  2438   2436   2438 1
  2439   2436   2443 1
  2440   2438   2439 1
  2441   2438   2440 1
  2442   2438   2441 1
  2443   2441   2442 1
  2444   2443   2444 1
  2445   2443   2445 1
  2446   2443   2447 1
  2447   2445   2446 1
  2448   2447   2448 1
  2449   2447   2449 1
  2450   2447   2451 1
  2451   2449   2450 1
  2452   2451   2452 1
  2453   2451   2453 1
  2454   2454   2455 1
  2455   2454   2456 1
  2456   2454   2469 1
  2457   2456   2457 1
  2458   2456   2458 1
  2459   2456   2474 1
  2460   2458   2459 1
  2461   2458   2460 1
  2462   2458   2472 1
  2463   2460   2461 1
  2464   2460   2462 1
  2465   2460   2470 1
  2466   2462   2463 1
  2467   2462   2464 1
  2468   2462   2469 1
  2469   2464   2465 1
  2470   2464   2466 1
  2471   2464   2467 1
  2472   2467   2468 1
  2473   2470   2471 1
  2474   2472   2473 1
  2475   2475   2476 1
  2476   2475   2477 1
  2477   2475   2492 1
  2478   2477   2478 1
  2479   2478   2479 1
  2480   2478   2480 1
  2481   2478   2484 1
  2482   2480   2481 1
  2483   2480   2482 1
  2484   2480   2483 1
  2485   2484   2485 1
  2486   2484   2486 1
  2487   2484   2488 1
  2488   2486   2487 1
  2489   2488   2489 1
  2490   2488   2490 1
  2491   2488   2492 1
  2492   2490   2491 1
  2493   2492   2493 1
  2494   2492   2494 1
  2495   2495   2496 1
  2496   2495   2497 1
  2497   2495   2509 1
  2498   2497   2498 1
  2499   2497   2499 1
  2500   2497   2514 1
  2501   2499   2500 1
  2502   2499   2501 1
  2503   2499   2512 1
  2504   2501   2502 1
  2505   2501   2503 1
  2506   2501   2510 1
  2507   2503   2504 1
  2508   2503   2505 1
  2509   2503   2509 1
  2510   2505   2506 1
  2511   2505   2507 1
  2512   2505   2508 1
  2513   2510   2511 1
  2514   2512   2513 1
  2515   2515   2516 1
  2516   2516   2517 1
  2517   2516   2529 1
  2518   2516   2533 1
  2519   2517   2518 1
  2520   2518   2519 1
  2521   2518   2520 1
  2522   2518   2521 1
  2523   2521   2522 1
  2524   2521   2523 1
  2525   2521   2525 1
  2526   2523   2524 1
  2527   2525   2526 1
  2528   2525   2527 1
  2529   2525   2529 1
  2530   2527   2528 1
  2531   2529   2530 1
  2532   2529   2531 1
  2533   2531   2532 1
  2534   2533   2534 1
  2535   2533   2535 1
  2536   2533   2536 1
  2537   2536   2537 1
  2538   2538   2539 1
  2539   2539   2540 1
  2540   2539   2545 1
  2541   2539   2554 1
  2542   2540   2541 1
  2543   2540   2542 1
  2544   2540   2543 1
  2545   2543   2544 1
  2546   2545   2546 1
  2547   2545   2547 1
  2548   2545   2559 1
  2549   2547   2548 1
  2550   2547   2549 1
  2551   2547   2557 1
  2552   2549   2550 1
  2553   2549   2551 1
  2554   2549   2555 1
  2555   2551   2552 1
  2556   2551   2553 1
  2557   2551   2554 1
  2558   2555   2556 1
  2559   2557   2558 1
  2560   2559   2560 1
  2561   2561   2562 1
  2562   2561   2563 1
  2563   2561   2579 1
  2564   2563   2564 1
  2565   2564   2565 1
  2566   2564   2566 1
  2567   2564   2571 1
  2568   2566   2567 1
  2569   2566   2568 1
  2570   2566   2569 1
  2571   2569   2570 1
  2572   2571   2572 1
  2573   2571   2573 1
  2574   2571   2575 1
  2575   2573   2574 1
  2576   2575   2576 1
  2577   2575   2577 1
  2578   2575   2579 1
  2579   2577   2578 1
  2580   2579   2580 1
  2581   2579   2581 1
  2582   2582   2583 1
  2583   2582   2584 1
  2584   2582   2597 1
  2585   2584   2585 1
  2586   2584   2586 1
  2587   2584   2602 1
  2588   2586   2587 1
  2589   2586   2588 1
  2590   2586   2600 1
  2591   2588   2589 1
  2592   2588   2590 1
  2593   2588   2598 1
  2594   2590   2591 1
  2595   2590   2592 1
  2596   2590   2597 1
  2597   2592   2593 1
  2598   2592   2594 1
  2599   2592   2595 1
  2600   2595   2596 1
  2601   2598   2599 1
  2602   2600   2601 1
  2603   2603   2604 1
  2604   2603   2605 1
  2605   2603   2621 1
  2606   2605   2606 1
  2607   2606   2607 1
  2608   2606   2608 1
  2609   2606   2613 1
  2610   2608   2609 1
  2611   2608   2610 1
  2612   2608   2611 1
  2613   2611   2612 1
  2614   2613   2614 1
  2615   2613   2615 1
  2616   2613   2617 1
  2617   2615   2616 1
  2618   2617   2618 1
  2619   2617   2619 1
  2620   2617   2621 1
  2621   2619   2620 1
  2622   2621   2622 1
  2623   2621   2623 1
  2624   2624   2625 1
  2625   2624   2626 1
  2626   2624   2639 1
  2627   2626   2627 1
  2628   2626   2628 1
  2629   2626   2644 1
  2630   2628   2629 1
  2631   2628   2630 1
  2632   2628   2642 1
  2633   2630   2631 1
  2634   2630   2632 1
  2635   2630   2640 1
  2636   2632   2633 1
  2637   2632   2634 1
  2638   2632   2639 1
  2639   2634   2635 1
  2640   2634   2636 1
  2641   2634   2637 1
  2642   2637   2638 1
  2643   2640   2641 1
  2644   2642   2643 1
  2645   2645   2646 1
  2646   2645   2647 1
  2647   2645   2663 1
  2648   2647   2648 1
  2649   2648   2649 1
  2650   2648   2650 1
  2651   2648   2655 1
  2652   2650   2651 1
  2653   2650   2652 1
  2654   2650   2653 1
  2655   2653   2654 1
  2656   2655   2656 1
  2657   2655   2657 1
  2658   2655   2659 1
  2659   2657   2658 1
  2660   2659   2660 1
  2661   2659   2661 1
  2662   2659   2663 1
  2663   2661   2662 1
  2664   2663   2664 1
  2665   2663   2665 1
  2666   2666   2667 1
  2667   2666   2668 1
  2668   2666   2681 1
  2669   2668   2669 1
  2670   2668   2670 1
  2671   2668   2686 1
  2672   2670   2671 1
  2673   2670   2672 1
  2674   2670   2684 1
  2675   2672   2673 1
  2676   2672   2674 1
  2677   2672   2682 1
  2678   2674   2675 1
  2679   2674   2676 1
  2680   2674   2681 1
  2681   2676   2677 1
  2682   2676   2678 1
  2683   2676   2679 1
  2684   2679   2680 1
  2685   2682   2683 1
  2686   2684   2685 1
  2687   2687   2688 1
  2688   2687   2689 1
  2689   2687   2705 1
  2690   2689   2690 1
  2691   2690   2691 1
  2692   2690   2692 1
  2693   2690   2697 1
  2694   2692   2693 1
  2695   2692   2694 1
  2696   2692   2695 1
  2697   2695   2696 1
  2698   2697   2698 1
  2699   2697   2699 1
  2700   2697   2701 1
  2701   2699   2700 1
  2702   2701   2702 1
  2703   2701   2703 1
  2704   2701   2705 1
  2705   2703   2704 1
  2706   2705   2706 1
  2707   2705   2707 1
  2708   2708   2709 1
  2709   2708   2710 1
  2710   2708   2723 1
  2711   2710   2711 1
  2712   2710   2712 1
  2713   2710   2728 1
  2714   2712   2713 1
  2715   2712   2714 1
  2716   2712   2726 1
  2717   2714   2715 1
  2718   2714   2716 1
  2719   2714   2724 1
  2720   2716   2717 1
  2721   2716   2718 1
  2722   2716   2723 1
  2723   2718   2719 1
  2724   2718   2720 1
  2725   2718   2721 1
  2726   2721   2722 1
  2727   2724   2725 1
  2728   2726   2727 1
  2729   2729   2730 1
  2730   2729   2731 1
  2731   2729   2745 1
  2732   2731   2732 1
  2733   2732   2733 1
  2734   2732   2734 1
  2735   2732   2737 1
  2736   2734   2735 1
  2737   2734   2736 1
  2738   2737   2738 1
  2739   2737   2739 1
  2740   2737   2741 1
  2741   2739   2740 1
  2742   2741   2742 1
  2743   2741   2743 1
  2744   2741   2745 1
  2745   2743   2744 1
  2746   2745   2746 1
  2747   2745   2747 1
  2748   2748   2749 1
  2749   2748   2750 1
  2750   2748   2761 1
  2751   2750   2751 1
  2752   2750   2752 1
  2753   2750   2766 1
  2754   2752   2753 1
  2755   2752   2754 1
  2756   2752   2764 1
  2757   2754   2755 1
  2758   2754   2756 1
  2759   2754   2762 1
  2760   2756   2757 1
  2761   2756   2758 1
  2762   2756   2761 1
  2763   2758   2759 1
  2764   2758   2760 1
  2765   2762   2763 1
  2766   2764   2765 1
  2767   2767   2768 1
  2768   2768   2769 1
  2769   2768   2781 1
  2770   2768   2785 1
  2771   2769   2770 1
  2772   2770   2771 1
  2773   2770   2772 1
  2774   2770   2773 1
  2775   2773   2774 1
  2776   2773   2775 1
  2777   2773   2777 1
  2778   2775   2776 1
  2779   2777   2778 1
  2780   2777   2779 1
  2781   2777   2781 1
  2782   2779   2780 1
  2783   2781   2782 1
  2784   2781   2783 1
  2785   2783   2784 1
  2786   2785   2786 1
  2787   2785   2787 1
  2788   2785   2788 1
  2789   2788   2789 1
  2790   2790   2791 1
  2791   2791   2792 1
  2792   2791   2797 1
  2793   2791   2806 1
  2794   2792   2793 1
  2795   2792   2794 1
  2796   2792   2795 1
  2797   2795   2796 1
  2798   2797   2798 1
  2799   2797   2799 1
  2800   2797   2811 1
  2801   2799   2800 1
  2802   2799   2801 1
  2803   2799   2809 1
  2804   2801   2802 1
  2805   2801   2803 1
  2806   2801   2807 1
  2807   2803   2804 1
  2808   2803   2805 1
  2809   2803   2806 1
  2810   2807   2808 1
  2811   2809   2810 1
  2812   2811   2812 1
  2813   2813   2814 1
  2814   2813   2815 1
  2815   2813   2830 1
  2816   2815   2816 1
  2817   2816   2817 1
  2818   2816   2818 1
  2819   2816   2822 1
  2820   2818   2819 1
  2821   2818   2820 1
  2822   2818   2821 1
  2823   2822   2823 1
  2824   2822   2824 1
  2825   2822   2826 1
  2826   2824   2825 1
  2827   2826   2827 1
  2828   2826   2828 1
  2829   2826   2830 1
  2830   2828   2829 1
  2831   2830   2831 1
  2832   2830   2832 1
  2833   2833   2834 1
  2834   2833   2835 1
  2835   2833   2847 1
  2836   2835   2836 1
  2837   2835   2837 1
  2838   2835   2852 1
  2839   2837   2838 1
  2840   2837   2839 1
  2841   2837   2850 1
  2842   2839   2840 1
  2843   2839   2841 1
  2844   2839   2848 1
  2845   2841   2842 1
  2846   2841   2843 1
  2847   2841   2847 1
  2848   2843   2844 1
  2849   2843   2845 1
  2850   2843   2846 1
  2851   2848   2849 1
  2852   2850   2851 1
  2853   2853   2854 1
  2854   2853   2855 1
  2855   2853   2867 1
  2856   2855   2856 1
  2857   2856   2857 1
  2858   2856   2858 1
  2859   2856   2859 1
  2860   2859   2860 1
  2861   2859   2861 1
  2862   2859   2863 1
  2863   2861   2862 1
  2864   2863   2864 1
  2865   2863   2865 1
  2866   2863   2867 1
  2867   2865   2866 1
  2868   2867   2868 1
  2869   2867   2869 1
  2870   2870   2871 1
  2871   2870   2872 1
  2872   2870   2881 1
  2873   2872   2873 1
  2874   2872   2874 1
  2875   2872   2886 1
  2876   2874   2875 1
  2877   2874   2876 1
  2878   2874   2884 1
  2879   2876   2877 1
  2880   2876   2878 1
  2881   2876   2882 1
  2882   2878   2879 1
  2883   2878   2880 1
  2884   2878   2881 1
  2885   2882   2883 1
  2886   2884   2885 1
  2887   2887   2888 1
  2888   2887   2889 1
  2889   2887   2905 1
  2890   2889   2890 1
  2891   2890   2891 1
  2892   2890   2892 1
  2893   2890   2897 1
  2894   2892   2893 1
  2895   2892   2894 1
  2896   2892   2895 1
  2897   2895   2896 1
  2898   2897   2898 1
  2899   2897   2899 1
  2900   2897   2901 1
  2901   2899   2900 1
  2902   2901   2902 1
  2903   2901   2903 1
  2904   2901   2905 1
  2905   2903   2904 1
  2906   2905   2906 1
  2907   2905   2907 1
  2908   2908   2909 1
  2909   2908   2910 1
  2910   2908   2923 1
  2911   2910   2911 1
  2912   2910   2912 1
  2913   2910   2928 1
  2914   2912   2913 1
  2915   2912   2914 1
  2916   2912   2926 1
  2917   2914   2915 1
  2918   2914   2916 1
  2919   2914   2924 1
  2920   2916   2917 1
  2921   2916   2918 1
  2922   2916   2923 1
  2923   2918   2919 1
  2924   2918   2920 1
  2925   2918   2921 1
  2926   2921   2922 1
  2927   2924   2925 1
  2928   2926   2927 1
  2929   2929   2930 1
  2930   2929   2931 1
  2931   2929   2945 1
  2932   2931   2932 1
  2933   2932   2933 1
  2934   2932   2934 1
  2935   2932   2937 1
  2936   2934   2935 1
  2937   2934   2936 1
  2938   2937   2938 1
  2939   2937   2939 1
  2940   2937   2941 1
  2941   2939   2940 1
  2942   2941   2942 1
  2943   2941   2943 1
  2944   2941   2945 1
  2945   2943   2944 1
  2946   2945   2946 1
  2947   2945   2947 1
  2948   2948   2949 1
  2949   2948   2950 1
  2950   2948   2961 1
  2951   2950   2951 1
  2952   2950   2952 1
  2953   2950   2966 1
  2954   2952   2953 1
  2955   2952   2954 1
  2956   2952   2964 1
  2957   2954   2955 1
  2958   2954   2956 1
  2959   2954   2962 1
  2960   2956   2957 1
  2961   2956   2958 1
  2962   2956   2961 1
  2963   2958   2959 1
  2964   2958   2960 1
  2965   2962   2963 1
  2966   2964   2965 1
  2967   2967   2968 1
  2968   2967   2969 1
  2969   2967   2981 1
  2970   2969   2970 1
  2971   2970   2971 1
  2972   2970   2972 1
  2973   2970   2973 1
  2974   2973   2974 1
  2975   2973   2975 1
  2976   2973   2977 1
  2977   2975   2976 1
  2978   2977   2978 1
  2979   2977   2979 1
  2980   2977   2981 1
  2981   2979   2980 1
  2982   2981   2982 1
  2983   2981   2983 1
  2984   2984   2985 1
  2985   2984   2986 1
  2986   2984   2995 1
  2987   2986   2987 1
  2988   2986   2988 1
  2989   2986   3000 1
  2990   2988   2989 1
  2991   2988   2990 1
  2992   2988   2998 1
  2993   2990   2991 1
  2994   2990   2992 1
  2995   2990   2996 1
  2996   2992   2993 1
  2997   2992   2994 1
  2998   2992   2995 1
  2999   2996   2997 1
  3000   2998   2999 1
  3001   3001   3002 1
  3002   3001   3003 1
  3003   3001   3017 1
  3004   3003   3004 1
  3005   3004   3005 1
  3006   3004   3006 1
  3007   3004   3009 1
  3008   3006   3007 1
  3009   3006   3008 1
  3010   3009   3010 1
  3011   3009   3011 1
  3012   3009   3013 1
  3013   3011   3012 1
  3014   3013   3014 1
  3015   3013   3015 1
  3016   3013   3017 1
  3017   3015   3016 1
  3018   3017   3018 1
  3019   3017   3019 1
  3020   3020   3021 1
  3021   3020   3022 1
  3022   3020   3033 1
  3023   3022   3023 1
  3024   3022   3024 1
  3025   3022   3038 1
  3026   3024   3025 1
  3027   3024   3026 1
  3028   3024   3036 1
  3029   3026   3027 1
  3030   3026   3028 1
  3031   3026   3034 1
  3032   3028   3029 1
  3033   3028   3030 1
  3034   3028   3033 1
  3035   3030   3031 1
  3036   3030   3032 1
  3037   3034   3035 1
  3038   3036   3037 1
  3039   3039   3040 1
  3040   3039   3041 1
  3041   3039   3051 1
  3042   3041   3042 1
  3043   3042   3043 1
  3044   3042   3044 1
  3045   3042   3045 1
  3046   3045   3046 1
  3047   3045   3047 1
  3048   3045   3049 1
  3049   3047   3048 1
  3050   3049   3050 1
  3051   3049   3051 1
  3052   3049   3055 1
  3053   3051   3052 1
  3054   3051   3053 1
  3055   3053   3054 1
  3056   3056   3057 1
  3057   3056   3058 1
  3058   3056   3069 1
  3059   3058   3059 1
  3060   3058   3060 1
  3061   3058   3062 1
  3062   3060   3061 1
  3063   3062   3063 1
  3064   3062   3064 1
  3065   3062   3072 1
  3066   3064   3065 1
  3067   3064   3066 1
  3068   3064   3070 1
  3069   3066   3067 1
  3070   3066   3068 1
  3071   3066   3069 1
  3072   3070   3071 1
  3073   3073   3074 1
  3074   3073   3079 1
  3075   3073   3091 1
  3076   3074   3075 1
  3077   3074   3076 1
  3078   3074   3077 1
  3079   3077   3078 1
  3080   3079   3080 1
  3081   3080   3081 1
  3082   3080   3082 1
  3083   3080   3083 1
  3084   3083   3084 1
  3085   3083   3085 1
  3086   3083   3087 1
  3087   3085   3086 1
  3088   3087   3088 1
  3089   3087   3089 1
  3090   3087   3091 1
  3091   3089   3090 1
  3092   3091   3092 1
  3093   3091   3093 1
  3094   3094   3095 1
  3095   3094   3100 1
  3096   3094   3109 1
  3097   3095   3096 1
  3098   3095   3097 1
  3099   3095   3098 1
  3100   3098   3099 1
  3101   3100   3101 1
  3102   3100   3102 1
  3103   3100   3114 1
  3104   3102   3103 1
  3105   3102   3104 1
  3106   3102   3112 1
  3107   3104   3105 1
  3108   3104   3106 1
  3109   3104   3110 1
  3110   3106   3107 1
  3111   3106   3108 1
  3112   3106   3109 1
  3113   3110   3111 1
  3114   3112   3113 1
  3115   3115   3116 1
  3116   3115   3121 1
  3117   3115   3133 1
  3118   3116   3117 1
  3119   3116   3118 1
  3120   3116   3119 1
  3121   3119   3120 1
  3122   3121   3122 1
  3123   3122   3123 1
  3124   3122   3124 1
  3125   3122   3125 1
  3126   3125   3126 1
  3127   3125   3127 1
  3128   3125   3129 1
  3129   3127   3128 1
  3130   3129   3130 1
  3131   3129   3131 1
  3132   3129   3133 1
  3133   3131   3132 1
  3134   3133   3134 1
  3135   3133   3135 1
  3136   3136   3137 1
  3137   3136   3142 1
  3138   3136   3151 1
  3139   3137   3138 1
  3140   3137   3139 1
  3141   3137   3140 1
  3142   3140   3141 1
  3143   3142   3143 1
  3144   3142   3144 1
  3145   3142   3156 1
  3146   3144   3145 1
  3147   3144   3146 1
  3148   3144   3154 1
  3149   3146   3147 1
  3150   3146   3148 1
  3151   3146   3152 1
  3152   3148   3149 1
  3153   3148   3150 1
  3154   3148   3151 1
  3155   3152   3153 1
  3156   3154   3155 1
  3157   3157   3158 1
  3158   3157   3159 1
  3159   3157   3169 1
  3160   3159   3160 1
  3161   3160   3161 1
  3162   3160   3162 1
  3163   3160   3163 1
  3164   3163   3164 1
  3165   3163   3165 1
  3166   3163   3167 1
  3167   3165   3166 1
  3168   3167   3168 1
  3169   3167   3169 1
  3170   3167   3173 1
  3171   3169   3170 1
  3172   3169   3171 1
  3173   3171   3172 1
  3174   3174   3175 1
  3175   3174   3176 1
  3176   3174   3187 1
  3177   3176   3177 1
  3178   3176   3178 1
  3179   3176   3180 1
  3180   3178   3179 1
  3181   3180   3181 1
  3182   3180   3182 1
  3183   3180   3190 1
  3184   3182   3183 1
  3185   3182   3184 1
  3186   3182   3188 1
  3187   3184   3185 1
  3188   3184   3186 1
  3189   3184   3187 1
  3190   3188   3189 1
  3191   3191   3192 1
  3192   3191   3193 1
  3193   3191   3207 1
  3194   3193   3194 1
  3195   3194   3195 1
  3196   3194   3196 1
  3197   3194   3201 1
  3198   3196   3197 1
  3199   3196   3198 1
  3200   3196   3199 1
  3201   3199   3200 1
  3202   3201   3202 1
  3203   3201   3203 1
  3204   3201   3205 1
  3205   3203   3204 1
  3206   3205   3206 1
  3207   3205   3207 1
  3208   3205   3211 1
  3209   3207   3208 1
  3210   3207   3209 1
  3211   3209   3210 1
  3212   3212   3213 1
  3213   3212   3214 1
  3214   3212   3229 1
  3215   3214   3215 1
  3216   3214   3216 1
  3217   3214   3218 1
  3218   3216   3217 1
  3219   3218   3219 1
  3220   3218   3220 1
  3221   3218   3232 1
  3222   3220   3221 1
  3223   3220   3222 1
  3224   3220   3230 1
  3225   3222   3223 1
  3226   3222   3224 1
  3227   3222   3229 1
  3228   3224   3225 1
  3229   3224   3226 1
  3230   3224   3227 1
  3231   3227   3228 1
  3232   3230   3231 1
  3233   3233   3234 1
  3234   3233   3235 1
  3235   3233   3248 1
  3236   3235   3236 1
  3237   3236   3237 1
  3238   3236   3238 1
  3239   3236   3242 1
  3240   3238   3239 1
  3241   3238   3240 1
  3242   3238   3241 1
  3243   3242   3243 1
  3244   3242   3244 1
  3245   3242   3246 1
  3246   3244   3245 1
  3247   3246   3247 1
  3248   3246   3248 1
  3249   3246   3252 1
  3250   3248   3249 1
  3251   3248   3250 1
  3252   3250   3251 1
  3253   3253   3254 1
  3254   3253   3255 1
  3255   3253   3269 1
  3256   3255   3256 1
  3257   3255   3257 1
  3258   3255   3259 1
  3259   3257   3258 1
  3260   3259   3260 1
  3261   3259   3261 1
  3262   3259   3272 1
  3263   3261   3262 1
  3264   3261   3263 1
  3265   3261   3270 1
  3266   3263   3264 1
  3267   3263   3265 1
  3268   3263   3269 1
  3269   3265   3266 1
  3270   3265   3267 1
  3271   3265   3268 1
  3272   3270   3271 1
  3273   3273   3274 1
  3274   3273   3275 1
  3275   3273   3289 1
  3276   3275   3276 1
  3277   3276   3277 1
  3278   3276   3278 1
  3279   3276   3283 1
  3280   3278   3279 1
  3281   3278   3280 1
  3282   3278   3281 1
  3283   3281   3282 1
  3284   3283   3284 1
  3285   3283   3285 1
  3286   3283   3287 1
  3287   3285   3286 1
  3288   3287   3288 1
  3289   3287   3289 1
  3290   3287   3293 1
  3291   3289   3290 1
  3292   3289   3291 1
  3293   3291   3292 1
  3294   3294   3295 1
  3295   3294   3296 1
  3296   3294   3311 1
  3297   3296   3297 1
  3298   3296   3298 1
  3299   3296   3300 1
  3300   3298   3299 1
  3301   3300   3301 1
  3302   3300   3302 1
  3303   3300   3314 1
  3304   3302   3303 1
  3305   3302   3304 1
  3306   3302   3312 1
  3307   3304   3305 1
  3308   3304   3306 1
  3309   3304   3311 1
  3310   3306   3307 1
  3311   3306   3308 1
  3312   3306   3309 1
  3313   3309   3310 1
  3314   3312   3313 1
  3315   3315   3316 1
  3316   3315   3317 1
  3317   3315   3330 1
  3318   3317   3318 1
  3319   3318   3319 1
  3320   3318   3320 1
  3321   3318   3324 1
  3322   3320   3321 1
  3323   3320   3322 1
  3324   3320   3323 1
  3325   3324   3325 1
  3326   3324   3326 1
  3327   3324   3328 1
  3328   3326   3327 1
  3329   3328   3329 1
  3330   3328   3330 1
  3331   3328   3334 1
  3332   3330   3331 1
  3333   3330   3332 1
  3334   3332   3333 1
  3335   3335   3336 1
  3336   3335   3337 1
  3337   3335   3351 1
  3338   3337   3338 1
  3339   3337   3339 1
  3340   3337   3341 1
  3341   3339   3340 1
  3342   3341   3342 1
  3343   3341   3343 1
  3344   3341   3354 1
  3345   3343   3344 1
  3346   3343   3345 1
  3347   3343   3352 1
  3348   3345   3346 1
  3349   3345   3347 1
  3350   3345   3351 1
  3351   3347   3348 1
  3352   3347   3349 1
  3353   3347   3350 1
  3354   3352   3353 1
  3355   3355   3356 1
  3356   3355   3361 1
  3357   3355   3373 1
  3358   3356   3357 1
  3359   3356   3358 1
  3360   3356   3359 1
  3361   3359   3360 1
  3362   3361   3362 1
  3363   3362   3363 1
  3364   3362   3364 1
  3365   3362   3365 1
  3366   3365   3366 1
  3367   3365   3367 1
  3368   3365   3369 1
  3369   3367   3368 1
  3370   3369   3370 1
  3371   3369   3371 1
  3372   3369   3373 1
  3373   3371   3372 1
  3374   3373   3374 1
  3375   3373   3375 1
  3376   3376   3377 1
  3377   3376   3382 1
  3378   3376   3391 1
  3379   3377   3378 1
  3380   3377   3379 1
  3381   3377   3380 1
  3382   3380   3381 1
  3383   3382   3383 1
  3384   3382   3384 1
  3385   3382   3396 1
  3386   3384   3385 1
  3387   3384   3386 1
  3388   3384   3394 1
  3389   3386   3387 1
  3390   3386   3388 1
  3391   3386   3392 1
  3392   3388   3389 1
  3393   3388   3390 1
  3394   3388   3391 1
  3395   3392   3393 1
  3396   3394   3395 1
  3397   3397   3398 1
  3398   3397   3399 1
  3399   3397   3413 1
  3400   3399   3400 1
  3401   3400   3401 1
  3402   3400   3402 1
  3403   3400   3407 1
  3404   3402   3403 1
  3405   3402   3404 1
  3406   3402   3405 1
  3407   3405   3406 1
  3408   3407   3408 1
  3409   3407   3409 1
  3410   3407   3411 1
  3411   3409   3410 1
  3412   3411   3412 1
  3413   3411   3413 1
  3414   3411   3417 1
  3415   3413   3414 1
  3416   3413   3415 1
  3417   3415   3416 1
  3418   3418   3419 1
  3419   3418   3420 1
  3420   3418   3435 1
  3421   3420   3421 1
  3422   3420   3422 1
  3423   3420   3424 1
  3424   3422   3423 1
  3425   3424   3425 1
  3426   3424   3426 1
  3427   3424   3438 1
  3428   3426   3427 1
  3429   3426   3428 1
  3430   3426   3436 1
  3431   3428   3429 1
  3432   3428   3430 1
  3433   3428   3435 1
  3434   3430   3431 1
  3435   3430   3432 1
  3436   3430   3433 1
  3437   3433   3434 1
  3438   3436   3437 1
  3439   3439   3440 1
  3440   3439   3441 1
  3441   3439   3455 1
  3442   3441   3442 1
  3443   3442   3443 1
  3444   3442   3444 1
  3445   3442   3449 1
  3446   3444   3445 1
  3447   3444   3446 1
  3448   3444   3447 1
  3449   3447   3448 1
  3450   3449   3450 1
  3451   3449   3451 1
  3452   3449   3453 1
  3453   3451   3452 1
  3454   3453   3454 1
  3455   3453   3455 1
  3456   3453   3459 1
  3457   3455   3456 1
  3458   3455   3457 1
  3459   3457   3458 1
  3460   3460   3461 1
  3461   3460   3462 1
  3462   3460   3477 1
  3463   3462   3463 1
  3464   3462   3464 1
  3465   3462   3466 1
  3466   3464   3465 1
  3467   3466   3467 1
  3468   3466   3468 1
  3469   3466   3480 1
  3470   3468   3469 1
  3471   3468   3470 1
  3472   3468   3478 1
  3473   3470   3471 1
  3474   3470   3472 1
  3475   3470   3477 1
  3476   3472   3473 1
  3477   3472   3474 1
  3478   3472   3475 1
  3479   3475   3476 1
  3480   3478   3479 1
  3481   3481   3482 1
  3482   3481   3483 1
  3483   3481   3497 1
  3484   3483   3484 1
  3485   3484   3485 1
  3486   3484   3486 1
  3487   3484   3491 1
  3488   3486   3487 1
  3489   3486   3488 1
  3490   3486   3489 1
  3491   3489   3490 1
  3492   3491   3492 1
  3493   3491   3493 1
  3494   3491   3495 1
  3495   3493   3494 1
  3496   3495   3496 1
  3497   3495   3497 1
  3498   3495   3501 1
  3499   3497   3498 1
  3500   3497   3499 1
  3501   3499   3500 1
  3502   3502   3503 1
  3503   3502   3504 1
  3504   3502   3519 1
  3505   3504   3505 1
  3506   3504   3506 1
  3507   3504   3508 1
  3508   3506   3507 1
  3509   3508   3509 1
  3510   3508   3510 1
  3511   3508   3522 1
  3512   3510   3511 1
  3513   3510   3512 1
  3514   3510   3520 1
  3515   3512   3513 1
  3516   3512   3514 1
  3517   3512   3519 1
  3518   3514   3515 1
  3519   3514   3516 1
  3520   3514   3517 1
  3521   3517   3518 1
  3522   3520   3521 1
  3523   3523   3524 1
  3524   3523   3525 1
  3525   3523   3539 1
  3526   3525   3526 1
  3527   3526   3527 1
  3528   3526   3528 1
  3529   3526   3533 1
  3530   3528   3529 1
  3531   3528   3530 1
  3532   3528   3531 1
  3533   3531   3532 1
  3534   3533   3534 1
  3535   3533   3535 1
  3536   3533   3537 1
  3537   3535   3536 1
  3538   3537   3538 1
  3539   3537   3539 1
  3540   3537   3543 1
  3541   3539   3540 1
  3542   3539   3541 1
  3543   3541   3542 1
  3544   3544   3545 1
  3545   3544   3546 1
  3546   3544   3561 1
  3547   3546   3547 1
  3548   3546   3548 1
  3549   3546   3550 1
  3550   3548   3549 1
  3551   3550   3551 1
  3552   3550   3552 1
  3553   3550   3564 1
  3554   3552   3553 1
  3555   3552   3554 1
  3556   3552   3562 1
  3557   3554   3555 1
  3558   3554   3556 1
  3559   3554   3561 1
  3560   3556   3557 1
  3561   3556   3558 1
  3562   3556   3559 1
  3563   3559   3560 1
  3564   3562   3563 1
  3565   3565   3566 1
  3566   3565   3567 1
  3567   3565   3579 1
  3568   3567   3568 1
  3569   3568   3569 1
  3570   3568   3570 1
  3571   3568   3573 1
  3572   3570   3571 1
  3573   3570   3572 1
  3574   3573   3574 1
  3575   3573   3575 1
  3576   3573   3577 1
  3577   3575   3576 1
  3578   3577   3578 1
  3579   3577   3579 1
  3580   3577   3583 1
  3581   3579   3580 1
  3582   3579   3581 1
  3583   3581   3582 1
  3584   3584   3585 1
  3585   3584   3586 1
  3586   3584   3599 1
  3587   3586   3587 1
  3588   3586   3588 1
  3589   3586   3590 1
  3590   3588   3589 1
  3591   3590   3591 1
  3592   3590   3592 1
  3593   3590   3602 1
  3594   3592   3593 1
  3595   3592   3594 1
  3596   3592   3600 1
  3597   3594   3595 1
  3598   3594   3596 1
  3599   3594   3599 1
  3600   3596   3597 1
  3601   3596   3598 1
  3602   3600   3601 1
  3603   3603   3604 1
  3604   3603   3609 1
  3605   3603   3621 1
  3606   3604   3605 1
  3607   3604   3606 1
  3608   3604   3607 1
  3609   3607   3608 1
  3610   3609   3610 1
  3611   3610   3611 1
  3612   3610   3612 1
  3613   3610   3613 1
  3614   3613   3614 1
  3615   3613   3615 1
  3616   3613   3617 1
  3617   3615   3616 1
  3618   3617   3618 1
  3619   3617   3619 1
  3620   3617   3621 1
  3621   3619   3620 1
  3622   3621   3622 1
  3623   3621   3623 1
  3624   3624   3625 1
  3625   3624   3630 1
  3626   3624   3639 1
  3627   3625   3626 1
  3628   3625   3627 1
  3629   3625   3628 1
  3630   3628   3629 1
  3631   3630   3631 1
  3632   3630   3632 1
  3633   3630   3644 1
  3634   3632   3633 1
  3635   3632   3634 1
  3636   3632   3642 1
  3637   3634   3635 1
  3638   3634   3636 1
  3639   3634   3640 1
  3640   3636   3637 1
  3641   3636   3638 1
  3642   3636   3639 1
  3643   3640   3641 1
  3644   3642   3643 1
  3645   3645   3646 1
  3646   3645   3647 1
  3647   3645   3660 1
  3648   3647   3648 1
  3649   3648   3649 1
  3650   3648   3650 1
  3651   3648   3654 1
  3652   3650   3651 1
  3653   3650   3652 1
  3654   3650   3653 1
  3655   3654   3655 1
  3656   3654   3656 1
  3657   3654   3658 1
  3658   3656   3657 1
  3659   3658   3659 1
  3660   3658   3660 1
  3661   3658   3664 1
  3662   3660   3661 1
  3663   3660   3662 1
  3664   3662   3663 1
  3665   3665   3666 1
  3666   3665   3667 1
  3667   3665   3681 1
  3668   3667   3668 1
  3669   3667   3669 1
  3670   3667   3671 1
  3671   3669   3670 1
  3672   3671   3672 1
  3673   3671   3673 1
  3674   3671   3684 1
  3675   3673   3674 1
  3676   3673   3675 1
  3677   3673   3682 1
  3678   3675   3676 1
  3679   3675   3677 1
  3680   3675   3681 1
  3681   3677   3678 1
  3682   3677   3679 1
  3683   3677   3680 1
  3684   3682   3683 1
  3685   3685   3686 1
  3686   3685   3687 1
  3687   3685   3697 1
  3688   3687   3688 1
  3689   3688   3689 1
  3690   3688   3690 1
  3691   3688   3691 1
  3692   3691   3692 1
  3693   3691   3693 1
  3694   3691   3695 1
  3695   3693   3694 1
  3696   3695   3696 1
  3697   3695   3697 1
  3698   3695   3701 1
  3699   3697   3698 1
  3700   3697   3699 1
  3701   3699   3700 1
  3702   3702   3703 1
  3703   3702   3704 1
  3704   3702   3715 1
  3705   3704   3705 1
  3706   3704   3706 1
  3707   3704   3708 1
  3708   3706   3707 1
  3709   3708   3709 1
  3710   3708   3710 1
  3711   3708   3718 1
  3712   3710   3711 1
  3713   3710   3712 1
  3714   3710   3716 1
  3715   3712   3713 1
  3716   3712   3714 1
  3717   3712   3715 1
  3718   3716   3717 1
  3719   3719   3720 1
  3720   3719   3721 1
  3721   3719   3735 1
  3722   3721   3722 1
  3723   3722   3723 1
  3724   3722   3724 1
  3725   3722   3729 1
  3726   3724   3725 1
  3727   3724   3726 1
  3728   3724   3727 1
  3729   3727   3728 1
  3730   3729   3730 1
  3731   3729   3731 1
  3732   3729   3733 1
  3733   3731   3732 1
  3734   3733   3734 1
  3735   3733   3735 1
  3736   3733   3739 1
  3737   3735   3736 1
  3738   3735   3737 1
  3739   3737   3738 1
  3740   3740   3741 1
  3741   3740   3742 1
  3742   3740   3757 1
  3743   3742   3743 1
  3744   3742   3744 1
  3745   3742   3746 1
  3746   3744   3745 1
  3747   3746   3747 1
  3748   3746   3748 1
  3749   3746   3760 1
  3750   3748   3749 1
  3751   3748   3750 1
  3752   3748   3758 1
  3753   3750   3751 1
  3754   3750   3752 1
  3755   3750   3757 1
  3756   3752   3753 1
  3757   3752   3754 1
  3758   3752   3755 1
  3759   3755   3756 1
  3760   3758   3759 1
  3761   3761   3762 1
  3762   3761   3763 1
  3763   3761   3775 1
  3764   3763   3764 1
  3765   3764   3765 1
  3766   3764   3766 1
  3767   3764   3769 1
  3768   3766   3767 1
  3769   3766   3768 1
  3770   3769   3770 1
  3771   3769   3771 1
  3772   3769   3773 1
  3773   3771   3772 1
  3774   3773   3774 1
  3775   3773   3775 1
  3776   3773   3779 1
  3777   3775   3776 1
  3778   3775   3777 1
  3779   3777   3778 1
  3780   3780   3781 1
  3781   3780   3782 1
  3782   3780   3795 1
  3783   3782   3783 1
  3784   3782   3784 1
  3785   3782   3786 1
  3786   3784   3785 1
  3787   3786   3787 1
  3788   3786   3788 1
  3789   3786   3798 1
  3790   3788   3789 1
  3791   3788   3790 1
  3792   3788   3796 1
  3793   3790   3791 1
  3794   3790   3792 1
  3795   3790   3795 1
  3796   3792   3793 1
  3797   3792   3794 1
  3798   3796   3797 1
  3799   3799   3800 1
  3800   3799   3801 1
  3801   3799   3815 1
  3802   3801   3802 1
  3803   3802   3803 1
  3804   3802   3804 1
  3805   3802   3809 1
  3806   3804   3805 1
  3807   3804   3806 1
  3808   3804   3807 1
  3809   3807   3808 1
  3810   3809   3810 1
  3811   3809   3811 1
  3812   3809   3813 1
  3813   3811   3812 1
  3814   3813   3814 1
  3815   3813   3815 1
  3816   3813   3825 1
  3817   3815   3816 1
  3818   3815   3817 1
  3819   3817   3818 1
  3820   3817   3819 1
  3821   3819   3820 1
  3822   3819   3821 1
  3823   3821   3822 1
  3824   3821   3823 1
  3825   3821   3824 1
  3826   3826   3827 1
  3827   3826   3828 1
  3828   3826   3849 1
  3829   3828   3829 1
  3830   3828   3830 1
  3831   3828   3838 1
  3832   3830   3831 1
  3833   3830   3832 1
  3834   3832   3833 1
  3835   3832   3837 1
  3836   3833   3834 1
  3837   3833   3835 1
  3838   3833   3836 1
  3839   3838   3839 1
  3840   3838   3840 1
  3841   3838   3852 1
  3842   3840   3841 1
  3843   3840   3842 1
  3844   3840   3850 1
  3845   3842   3843 1
  3846   3842   3844 1
  3847   3842   3849 1
  3848   3844   3845 1
  3849   3844   3846 1
  3850   3844   3847 1
  3851   3847   3848 1
  3852   3850   3851 1
  3853   3853   3854 1
  3854   3853   3855 1
  3855   3853   3869 1
  3856   3855   3856 1
  3857   3856   3857 1
  3858   3856   3858 1
  3859   3856   3863 1
  3860   3858   3859 1
  3861   3858   3860 1
  3862   3858   3861 1
  3863   3861   3862 1
  3864   3863   3864 1
  3865   3863   3865 1
  3866   3863   3867 1
  3867   3865   3866 1
  3868   3867   3868 1
  3869   3867   3869 1
  3870   3867   3879 1
  3871   3869   3870 1
  3872   3869   3871 1
  3873   3871   3872 1
  3874   3871   3873 1
  3875   3873   3874 1
  3876   3873   3875 1
  3877   3875   3876 1
  3878   3875   3877 1
  3879   3875   3878 1
  3880   3880   3881 1
  3881   3880   3882 1
  3882   3880   3903 1
  3883   3882   3883 1
  3884   3882   3884 1
  3885   3882   3892 1
  3886   3884   3885 1
  3887   3884   3886 1
  3888   3886   3887 1
  3889   3886   3891 1
  3890   3887   3888 1
  3891   3887   3889 1
  3892   3887   3890 1
  3893   3892   3893 1
  3894   3892   3894 1
  3895   3892   3906 1
  3896   3894   3895 1
  3897   3894   3896 1
  3898   3894   3904 1
  3899   3896   3897 1
  3900   3896   3898 1
  3901   3896   3903 1
  3902   3898   3899 1
  3903   3898   3900 1
  3904   3898   3901 1
  3905   3901   3902 1
  3906   3904   3905 1
  3907   3907   3908 1
  3908   3907   3909 1
  3909   3907   3919 1
  3910   3909   3910 1
  3911   3910   3911 1
  3912   3910   3912 1
  3913   3910   3913 1
  3914   3913   3914 1
  3915   3913   3915 1
  3916   3913   3917 1
  3917   3915   3916 1
  3918   3917   3918 1
  3919   3917   3919 1
  3920   3917   3923 1
  3921   3919   3920 1
  3922   3919   3921 1
  3923   3921   3922 1
  3924   3924   3925 1
  3925   3924   3926 1
  3926   3924   3937 1
  3927   3926   3927 1
  3928   3926   3928 1
  3929   3926   3930 1
  3930   3928   3929 1
  3931   3930   3931 1
  3932   3930   3932 1
  3933   3930   3940 1
  3934   3932   3933 1
  3935   3932   3934 1
  3936   3932   3938 1
  3937   3934   3935 1
  3938   3934   3936 1
  3939   3934   3937 1
  3940   3938   3939 1
  3941   3941   3942 1
  3942   3941   3943 1
  3943   3941   3957 1
  3944   3943   3944 1
  3945   3944   3945 1
  3946   3944   3946 1
  3947   3944   3951 1
  3948   3946   3947 1
  3949   3946   3948 1
  3950   3946   3949 1
  3951   3949   3950 1
  3952   3951   3952 1
  3953   3951   3953 1
  3954   3951   3955 1
  3955   3953   3954 1
  3956   3955   3956 1
  3957   3955   3957 1
  3958   3955   3967 1
  3959   3957   3958 1
  3960   3957   3959 1
  3961   3959   3960 1
  3962   3959   3961 1
  3963   3961   3962 1
  3964   3961   3963 1
  3965   3963   3964 1
  3966   3963   3965 1
  3967   3963   3966 1
  3968   3968   3969 1
  3969   3968   3970 1
  3970   3968   3991 1
  3971   3970   3971 1
  3972   3970   3972 1
  3973   3970   3980 1
  3974   3972   3973 1
  3975   3972   3974 1
  3976   3974   3975 1
  3977   3974   3979 1
  3978   3975   3976 1
  3979   3975   3977 1
  3980   3975   3978 1
  3981   3980   3981 1
  3982   3980   3982 1
  3983   3980   3994 1
  3984   3982   3983 1
  3985   3982   3984 1
  3986   3982   3992 1
  3987   3984   3985 1
  3988   3984   3986 1
  3989   3984   3991 1
  3990   3986   3987 1
  3991   3986   3988 1
  3992   3986   3989 1
  3993   3989   3990 1
  3994   3992   3993 1
  3995   3995   3996 1
  3996   3995   3997 1
  3997   3995   4009 1
  3998   3997   3998 1
  3999   3998   3999 1
  4000   3998   4000 1
  4001   3998   4003 1
  4002   4000   4001 1
  4003   4000   4002 1
  4004   4003   4004 1
  4005   4003   4005 1
  4006   4003   4007 1
  4007   4005   4006 1
  4008   4007   4008 1
  4009   4007   4009 1
  4010   4007   4013 1
  4011   4009   4010 1
  4012   4009   4011 1
  4013   4011   4012 1
  4014   4014   4015 1
  4015   4014   4016 1
  4016   4014   4029 1
  4017   4016   4017 1
  4018   4016   4018 1
  4019   4016   4020 1
  4020   4018   4019 1
  4021   4020   4021 1
  4022   4020   4022 1
  4023   4020   4032 1
  4024   4022   4023 1
  4025   4022   4024 1
  4026   4022   4030 1
  4027   4024   4025 1
  4028   4024   4026 1
  4029   4024   4029 1
  4030   4026   4027 1
  4031   4026   4028 1
  4032   4030   4031 1
  4033   4033   4034 1
  4034   4033   4035 1
  4035   4033   4045 1
  4036   4035   4036 1
  4037   4036   4037 1
  4038   4036   4038 1
  4039   4036   4039 1
  4040   4039   4040 1
  4041   4039   4041 1
  4042   4039   4049 1
  4043   4041   4042 1
  4044   4041   4043 1
  4045   4041   4045 1
  4046   4043   4044 1
  4047   4045   4046 1
  4048   4045   4047 1
  4049   4047   4048 1
  4050   4050   4051 1
  4051   4050   4052 1
  4052   4050   4065 1
  4053   4052   4053 1
  4054   4052   4054 1
  4055   4052   4056 1
  4056   4054   4055 1
  4057   4056   4057 1
  4058   4056   4058 1
  4059   4056   4060 1
  4060   4058   4059 1
  4061   4060   4061 1
  4062   4060   4062 1
  4063   4060   4066 1
  4064   4062   4063 1
  4065   4062   4064 1
  4066   4062   4065 1
  4067   4067   4068 1
  4068   4067   4073 1
  4069   4067   4083 1
  4070   4068   4069 1
  4071   4068   4070 1
  4072   4068   4071 1
  4073   4071   4072 1
  4074   4073   4074 1
  4075   4074   4075 1
  4076   4074   4076 1
  4077   4074   4077 1
  4078   4077   4078 1
  4079   4077   4079 1
  4080   4077   4081 1
  4081   4079   4080 1
  4082   4081   4082 1
  4083   4081   4083 1
  4084   4081   4087 1
  4085   4083   4084 1
  4086   4083   4085 1
  4087   4085   4086 1
  4088   4088   4089 1
  4089   4088   4094 1
  4090   4088   4105 1
  4091   4089   4090 1
  4092   4089   4091 1
  4093   4089   4092 1
  4094   4092   4093 1
  4095   4094   4095 1
  4096   4094   4096 1
  4097   4094   4098 1
  4098   4096   4097 1
  4099   4098   4099 1
  4100   4098   4100 1
  4101   4098   4108 1
  4102   4100   4101 1
  4103   4100   4102 1
  4104   4100   4106 1
  4105   4102   4103 1
  4106   4102   4104 1
  4107   4102   4105 1
  4108   4106   4107 1
  4109   4109   4110 1
  4110   4109   4115 1
  4111   4109   4125 1
  4112   4110   4111 1
  4113   4110   4112 1
  4114   4110   4113 1
  4115   4113   4114 1
  4116   4115   4116 1
  4117   4116   4117 1
  4118   4116   4118 1
  4119   4116   4119 1
  4120   4119   4120 1
  4121   4119   4121 1
  4122   4119   4123 1
  4123   4121   4122 1
  4124   4123   4124 1
  4125   4123   4125 1
  4126   4123   4129 1
  4127   4125   4126 1
  4128   4125   4127 1
  4129   4127   4128 1
  4130   4130   4131 1
  4131   4130   4136 1
  4132   4130   4147 1
  4133   4131   4132 1
  4134   4131   4133 1
  4135   4131   4134 1
  4136   4134   4135 1
  4137   4136   4137 1
  4138   4136   4138 1
  4139   4136   4140 1
  4140   4138   4139 1
  4141   4140   4141 1
  4142   4140   4142 1
  4143   4140   4150 1
  4144   4142   4143 1
  4145   4142   4144 1
  4146   4142   4148 1
  4147   4144   4145 1
  4148   4144   4146 1
  4149   4144   4147 1
  4150   4148   4149 1
  4151   4151   4152 1
  4152   4151   4153 1
  4153   4151   4163 1
  4154   4153   4154 1
  4155   4154   4155 1
  4156   4154   4156 1
  4157   4154   4157 1
  4158   4157   4158 1
  4159   4157   4159 1
  4160   4157   4167 1
  4161   4159   4160 1
  4162   4159   4161 1
  4163   4159   4163 1
  4164   4161   4162 1
  4165   4163   4164 1
  4166   4163   4165 1
  4167   4165   4166 1
  4168   4168   4169 1
  4169   4168   4170 1
  4170   4168   4183 1
  4171   4170   4171 1
  4172   4170   4172 1
  4173   4170   4174 1
  4174   4172   4173 1
  4175   4174   4175 1
  4176   4174   4176 1
  4177   4174   4178 1
  4178   4176   4177 1
  4179   4178   4179 1
  4180   4178   4180 1
  4181   4178   4184 1
  4182   4180   4181 1
  4183   4180   4182 1
  4184   4180   4183 1
  4185   4185   4186 1
  4186   4185   4187 1
  4187   4185   4201 1
  4188   4187   4188 1
  4189   4188   4189 1
  4190   4188   4190 1
  4191   4188   4195 1
  4192   4190   4191 1
  4193   4190   4192 1
  4194   4190   4193 1
  4195   4193   4194 1
  4196   4195   4196 1
  4197   4195   4197 1
  4198   4195   4205 1
  4199   4197   4198 1
  4200   4197   4199 1
  4201   4197   4201 1
  4202   4199   4200 1
  4203   4201   4202 1
  4204   4201   4203 1
  4205   4203   4204 1
  4206   4206   4207 1
  4207   4206   4208 1
  4208   4206   4225 1
  4209   4208   4209 1
  4210   4208   4210 1
  4211   4208   4212 1
  4212   4210   4211 1
  4213   4212   4213 1
  4214   4212   4214 1
  4215   4212   4216 1
  4216   4214   4215 1
  4217   4216   4217 1
  4218   4216   4218 1
  4219   4216   4226 1
  4220   4218   4219 1
  4221   4218   4220 1
  4222   4218   4225 1
  4223   4220   4221 1
  4224   4220   4222 1
  4225   4220   4223 1
  4226   4223   4224 1
  4227   4227   4228 1
  4228   4227   4229 1
  4229   4227   4242 1
  4230   4229   4230 1
  4231   4230   4231 1
  4232   4230   4232 1
  4233   4230   4236 1
  4234   4232   4233 1
  4235   4232   4234 1
  4236   4232   4235 1
  4237   4236   4237 1
  4238   4236   4238 1
  4239   4236   4246 1
  4240   4238   4239 1
  4241   4238   4240 1
  4242   4238   4242 1
  4243   4240   4241 1
  4244   4242   4243 1
  4245   4242   4244 1
  4246   4244   4245 1
  4247   4247   4248 1
  4248   4247   4249 1
  4249   4247   4265 1
  4250   4249   4250 1
  4251   4249   4251 1
  4252   4249   4253 1
  4253   4251   4252 1
  4254   4253   4254 1
  4255   4253   4255 1
  4256   4253   4257 1
  4257   4255   4256 1
  4258   4257   4258 1
  4259   4257   4259 1
  4260   4257   4266 1
  4261   4259   4260 1
  4262   4259   4261 1
  4263   4259   4265 1
  4264   4261   4262 1
  4265   4261   4263 1
  4266   4261   4264 1
  4267   4267   4268 1
  4268   4267   4269 1
  4269   4267   4283 1
  4270   4269   4270 1
  4271   4270   4271 1
  4272   4270   4272 1
  4273   4270   4277 1
  4274   4272   4273 1
  4275   4272   4274 1
  4276   4272   4275 1
  4277   4275   4276 1
  4278   4277   4278 1
  4279   4277   4279 1
  4280   4277   4287 1
  4281   4279   4280 1
  4282   4279   4281 1
  4283   4279   4283 1
  4284   4281   4282 1
  4285   4283   4284 1
  4286   4283   4285 1
  4287   4285   4286 1
  4288   4288   4289 1
  4289   4288   4290 1
  4290   4288   4307 1
  4291   4290   4291 1
  4292   4290   4292 1
  4293   4290   4294 1
  4294   4292   4293 1
  4295   4294   4295 1
  4296   4294   4296 1
  4297   4294   4298 1
  4298   4296   4297 1
  4299   4298   4299 1
  4300   4298   4300 1
  4301   4298   4308 1
  4302   4300   4301 1
  4303   4300   4302 1
  4304   4300   4307 1
  4305   4302   4303 1
  4306   4302   4304 1
  4307   4302   4305 1
  4308   4305   4306 1
  4309   4309   4310 1
  4310   4309   4311 1
  4311   4309   4324 1
  4312   4311   4312 1
  4313   4312   4313 1
  4314   4312   4314 1
  4315   4312   4318 1
  4316   4314   4315 1
  4317   4314   4316 1
  4318   4314   4317 1
  4319   4318   4319 1
  4320   4318   4320 1
  4321   4318   4328 1
  4322   4320   4321 1
  4323   4320   4322 1
  4324   4320   4324 1
  4325   4322   4323 1
  4326   4324   4325 1
  4327   4324   4326 1
  4328   4326   4327 1
  4329   4329   4330 1
  4330   4329   4331 1
  4331   4329   4347 1
  4332   4331   4332 1
  4333   4331   4333 1
  4334   4331   4335 1
  4335   4333   4334 1
  4336   4335   4336 1
  4337   4335   4337 1
  4338   4335   4339 1
  4339   4337   4338 1
  4340   4339   4340 1
  4341   4339   4341 1
  4342   4339   4348 1
  4343   4341   4342 1
  4344   4341   4343 1
  4345   4341   4347 1
  4346   4343   4344 1
  4347   4343   4345 1
  4348   4343   4346 1
  4349   4349   4350 1
  4350   4349   4355 1
  4351   4349   4365 1
  4352   4350   4351 1
  4353   4350   4352 1
  4354   4350   4353 1
  4355   4353   4354 1
  4356   4355   4356 1
  4357   4356   4357 1
  4358   4356   4358 1
  4359   4356   4359 1
  4360   4359   4360 1
  4361   4359   4361 1
  4362   4359   4363 1
  4363   4361   4362 1
  4364   4363   4364 1
  4365   4363   4365 1
  4366   4363   4369 1
  4367   4365   4366 1
  4368   4365   4367 1
  4369   4367   4368 1
  4370   4370   4371 1
  4371   4370   4376 1
  4372   4370   4387 1
  4373   4371   4372 1
  4374   4371   4373 1
  4375   4371   4374 1
  4376   4374   4375 1
  4377   4376   4377 1
  4378   4376   4378 1
  4379   4376   4380 1
  4380   4378   4379 1
  4381   4380   4381 1
  4382   4380   4382 1
  4383   4380   4390 1
  4384   4382   4383 1
  4385   4382   4384 1
  4386   4382   4388 1
  4387   4384   4385 1
  4388   4384   4386 1
  4389   4384   4387 1
  4390   4388   4389 1
  4391   4391   4392 1
  4392   4391   4393 1
  4393   4391   4407 1
  4394   4393   4394 1
  4395   4394   4395 1
  4396   4394   4396 1
  4397   4394   4401 1
  4398   4396   4397 1
  4399   4396   4398 1
  4400   4396   4399 1
  4401   4399   4400 1
  4402   4401   4402 1
  4403   4401   4403 1
  4404   4401   4411 1
  4405   4403   4404 1
  4406   4403   4405 1
  4407   4403   4407 1
  4408   4405   4406 1
  4409   4407   4408 1
  4410   4407   4409 1
  4411   4409   4410 1
  4412   4412   4413 1
  4413   4412   4414 1
  4414   4412   4431 1
  4415   4414   4415 1
  4416   4414   4416 1
  4417   4414   4418 1
  4418   4416   4417 1
  4419   4418   4419 1
  4420   4418   4420 1
  4421   4418   4422 1
  4422   4420   4421 1
  4423   4422   4423 1
  4424   4422   4424 1
  4425   4422   4432 1
  4426   4424   4425 1
  4427   4424   4426 1
  4428   4424   4431 1
  4429   4426   4427 1
  4430   4426   4428 1
  4431   4426   4429 1
  4432   4429   4430 1
  4433   4433   4434 1
  4434   4433   4435 1
  4435   4433   4449 1
  4436   4435   4436 1
  4437   4436   4437 1
  4438   4436   4438 1
  4439   4436   4443 1
  4440   4438   4439 1
  4441   4438   4440 1
  4442   4438   4441 1
  4443   4441   4442 1
  4444   4443   4444 1
  4445   4443   4445 1
  4446   4443   4453 1
  4447   4445   4446 1
  4448   4445   4447 1
  4449   4445   4449 1
  4450   4447   4448 1
  4451   4449   4450 1
  4452   4449   4451 1
  4453   4451   4452 1
  4454   4454   4455 1
  4455   4454   4456 1
  4456   4454   4473 1
  4457   4456   4457 1
  4458   4456   4458 1
  4459   4456   4460 1
  4460   4458   4459 1
  4461   4460   4461 1
  4462   4460   4462 1
  4463   4460   4464 1
  4464   4462   4463 1
  4465   4464   4465 1
  4466   4464   4466 1
  4467   4464   4474 1
  4468   4466   4467 1
  4469   4466   4468 1
  4470   4466   4473 1
  4471   4468   4469 1
  4472   4468   4470 1
  4473   4468   4471 1
  4474   4471   4472 1
  4475   4475   4476 1
  4476   4475   4477 1
  4477   4475   4491 1
  4478   4477   4478 1
  4479   4478   4479 1
  4480   4478   4480 1
  4481   4478   4485 1
  4482   4480   4481 1
  4483   4480   4482 1
  4484   4480   4483 1
  4485   4483   4484 1
  4486   4485   4486 1
  4487   4485   4487 1
  4488   4485   4495 1
  4489   4487   4488 1
  4490   4487   4489 1
  4491   4487   4491 1
  4492   4489   4490 1
  4493   4491   4492 1
  4494   4491   4493 1
  4495   4493   4494 1
  4496   4496   4497 1
  4497   4496   4498 1
  4498   4496   4515 1
  4499   4498   4499 1
  4500   4498   4500 1
  4501   4498   4502 1
  4502   4500   4501 1
  4503   4502   4503 1
  4504   4502   4504 1
  4505   4502   4506 1
  4506   4504   4505 1
  4507   4506   4507 1
  4508   4506   4508 1
  4509   4506   4516 1
  4510   4508   4509 1
  4511   4508   4510 1
  4512   4508   4515 1
  4513   4510   4511 1
  4514   4510   4512 1
  4515   4510   4513 1
  4516   4513   4514 1
  4517   4517   4518 1
  4518   4517   4519 1
  4519   4517   4533 1
  4520   4519   4520 1
  4521   4520   4521 1
  4522   4520   4522 1
  4523   4520   4527 1
  4524   4522   4523 1
  4525   4522   4524 1
  4526   4522   4525 1
  4527   4525   4526 1
  4528   4527   4528 1
  4529   4527   4529 1
  4530   4527   4537 1
  4531   4529   4530 1
  4532   4529   4531 1
  4533   4529   4533 1
  4534   4531   4532 1
  4535   4533   4534 1
  4536   4533   4535 1
  4537   4535   4536 1
  4538   4538   4539 1
  4539   4538   4540 1
  4540   4538   4557 1
  4541   4540   4541 1
  4542   4540   4542 1
  4543   4540   4544 1
  4544   4542   4543 1
  4545   4544   4545 1
  4546   4544   4546 1
  4547   4544   4548 1
  4548   4546   4547 1
  4549   4548   4549 1
  4550   4548   4550 1
  4551   4548   4558 1
  4552   4550   4551 1
  4553   4550   4552 1
  4554   4550   4557 1
  4555   4552   4553 1
  4556   4552   4554 1
  4557   4552   4555 1
  4558   4555   4556 1
  4559   4559   4560 1
  4560   4559   4561 1
  4561   4559   4573 1
  4562   4561   4562 1
  4563   4562   4563 1
  4564   4562   4564 1
  4565   4562   4567 1
  4566   4564   4565 1
  4567   4564   4566 1
  4568   4567   4568 1
  4569   4567   4569 1
  4570   4567   4577 1
  4571   4569   4570 1
  4572   4569   4571 1
  4573   4569   4573 1
  4574   4571   4572 1
  4575   4573   4574 1
  4576   4573   4575 1
  4577   4575   4576 1
  4578   4578   4579 1
  4579   4578   4580 1
  4580   4578   4595 1
  4581   4580   4581 1
  4582   4580   4582 1
  4583   4580   4584 1
  4584   4582   4583 1
  4585   4584   4585 1
  4586   4584   4586 1
  4587   4584   4588 1
  4588   4586   4587 1
  4589   4588   4589 1
  4590   4588   4590 1
  4591   4588   4596 1
  4592   4590   4591 1
  4593   4590   4592 1
  4594   4590   4595 1
  4595   4592   4593 1
  4596   4592   4594 1
  4597   4597   4598 1
  4598   4597   4603 1
  4599   4597   4613 1
  4600   4598   4599 1
  4601   4598   4600 1
  4602   4598   4601 1
  4603   4601   4602 1
  4604   4603   4604 1
  4605   4604   4605 1
  4606   4604   4606 1
  4607   4604   4607 1
  4608   4607   4608 1
  4609   4607   4609 1
  4610   4607   4611 1
  4611   4609   4610 1
  4612   4611   4612 1
  4613   4611   4613 1
  4614   4611   4617 1
  4615   4613   4614 1
  4616   4613   4615 1
  4617   4615   4616 1
  4618   4618   4619 1
  4619   4618   4624 1
  4620   4618   4635 1
  4621   4619   4620 1
  4622   4619   4621 1
  4623   4619   4622 1
  4624   4622   4623 1
  4625   4624   4625 1
  4626   4624   4626 1
  4627   4624   4628 1
  4628   4626   4627 1
  4629   4628   4629 1
  4630   4628   4630 1
  4631   4628   4638 1
  4632   4630   4631 1
  4633   4630   4632 1
  4634   4630   4636 1
  4635   4632   4633 1
  4636   4632   4634 1
  4637   4632   4635 1
  4638   4636   4637 1
  4639   4639   4640 1
  4640   4639   4641 1
  4641   4639   4654 1
  4642   4641   4642 1
  4643   4642   4643 1
  4644   4642   4644 1
  4645   4642   4648 1
  4646   4644   4645 1
  4647   4644   4646 1
  4648   4644   4647 1
  4649   4648   4649 1
  4650   4648   4650 1
  4651   4648   4658 1
  4652   4650   4651 1
  4653   4650   4652 1
  4654   4650   4654 1
  4655   4652   4653 1
  4656   4654   4655 1
  4657   4654   4656 1
  4658   4656   4657 1
  4659   4659   4660 1
  4660   4659   4661 1
  4661   4659   4677 1
  4662   4661   4662 1
  4663   4661   4663 1
  4664   4661   4665 1
  4665   4663   4664 1
  4666   4665   4666 1
  4667   4665   4667 1
  4668   4665   4669 1
  4669   4667   4668 1
  4670   4669   4670 1
  4671   4669   4671 1
  4672   4669   4678 1
  4673   4671   4672 1
  4674   4671   4673 1
  4675   4671   4677 1
  4676   4673   4674 1
  4677   4673   4675 1
  4678   4673   4676 1
  4679   4679   4680 1
  4680   4679   4681 1
  4681   4679   4691 1
  4682   4681   4682 1
  4683   4682   4683 1
  4684   4682   4684 1
  4685   4682   4685 1
  4686   4685   4686 1
  4687   4685   4687 1
  4688   4685   4695 1
  4689   4687   4688 1
  4690   4687   4689 1
  4691   4687   4691 1
  4692   4689   4690 1
  4693   4691   4692 1
  4694   4691   4693 1
  4695   4693   4694 1
  4696   4696   4697 1
  4697   4696   4698 1
  4698   4696   4711 1
  4699   4698   4699 1
  4700   4698   4700 1
  4701   4698   4702 1
  4702   4700   4701 1
  4703   4702   4703 1
  4704   4702   4704 1
  4705   4702   4706 1
  4706   4704   4705 1
  4707   4706   4707 1
  4708   4706   4708 1
  4709   4706   4712 1
  4710   4708   4709 1
  4711   4708   4710 1
  4712   4708   4711 1
  4713   4713   4714 1
  4714   4713   4717 1
  4715   4713   4745 1
  4716   4714   4715 1
  4717   4714   4716 1
  4718   4717   4718 1
  4719   4718   4719 1
  4720   4718   4720 1
  4721   4718   4733 1
  4722   4720   4721 1
  4723   4720   4722 1
  4724   4720   4724 1
  4725   4722   4723 1
  4726   4724   4725 1
  4727   4724   4726 1
  4728   4724   4728 1
  4729   4726   4727 1
  4730   4728   4729 1
  4731   4728   4730 1
  4732   4728   4731 1
  4733   4731   4732 1
  4734   4733   4734 1
  4735   4733   4735 1
  4736   4733   4743 1
  4737   4735   4736 1
  4738   4735   4737 1
  4739   4737   4738 1
  4740   4737   4739 1
  4741   4739   4740 1
  4742   4739   4741 1
  4743   4739   4742 1
  4744   4743   4744 1
  4745   4743   4745 1
  4746   4743   4748 1
  4747   4745   4746 1
  4748   4745   4747 1
  4749   4749   4750 1
  4750   4749   4753 1
  4751   4749   4775 1
  4752   4750   4751 1
  4753   4750   4752 1
  4754   4753   4754 1
  4755   4753   4755 1
  4756   4753   4756 1
  4757   4756   4757 1
  4758   4756   4758 1
  4759   4756   4784 1
  4760   4758   4759 1
  4761   4758   4760 1
  4762   4758   4776 1
  4763   4760   4761 1
  4764   4760   4762 1
  4765   4760   4775 1
  4766   4762   4763 1
  4767   4762   4764 1
  4768   4762   4773 1
  4769   4764   4765 1
  4770   4764   4766 1
  4771   4764   4771 1
  4772   4766   4767 1
  4773   4766   4768 1
  4774   4766   4769 1
  4775   4769   4770 1
  4776   4771   4772 1
  4777   4773   4774 1
  4778   4776   4777 1
  4779   4776   4778 1
  4780   4778   4779 1
  4781   4778   4783 1
  4782   4779   4780 1
  4783   4779   4781 1
  4784   4779   4782 1
  4785   4785   4786 1
  4786   4785   4787 1
  4787   4785   4801 1
  4788   4787   4788 1
  4789   4788   4789 1
  4790   4788   4790 1
  4791   4788   4795 1
  4792   4790   4791 1
  4793   4790   4792 1
  4794   4790   4793 1
  4795   4793   4794 1
  4796   4795   4796 1
  4797   4795   4797 1
  4798   4795   4805 1
  4799   4797   4798 1
  4800   4797   4799 1
  4801   4797   4801 1
  4802   4799   4800 1
  4803   4801   4802 1
  4804   4801   4803 1
  4805   4803   4804 1
  4806   4806   4807 1
  4807   4806   4808 1
  4808   4806   4825 1
  4809   4808   4809 1
  4810   4808   4810 1
  4811   4808   4812 1
  4812   4810   4811 1
  4813   4812   4813 1
  4814   4812   4814 1
  4815   4812   4816 1
  4816   4814   4815 1
  4817   4816   4817 1
  4818   4816   4818 1
  4819   4816   4826 1
  4820   4818   4819 1
  4821   4818   4820 1
  4822   4818   4825 1
  4823   4820   4821 1
  4824   4820   4822 1
  4825   4820   4823 1
  4826   4823   4824 1
  4827   4827   4828 1
  4828   4827   4829 1
  4829   4827   4841 1
  4830   4829   4830 1
  4831   4830   4831 1
  4832   4830   4832 1
  4833   4830   4835 1
  4834   4832   4833 1
  4835   4832   4834 1
  4836   4835   4836 1
  4837   4835   4837 1
  4838   4835   4845 1
  4839   4837   4838 1
  4840   4837   4839 1
  4841   4837   4841 1
  4842   4839   4840 1
  4843   4841   4842 1
  4844   4841   4843 1
  4845   4843   4844 1
  4846   4846   4847 1
  4847   4846   4848 1
  4848   4846   4863 1
  4849   4848   4849 1
  4850   4848   4850 1
  4851   4848   4852 1
  4852   4850   4851 1
  4853   4852   4853 1
  4854   4852   4854 1
  4855   4852   4856 1
  4856   4854   4855 1
  4857   4856   4857 1
  4858   4856   4858 1
  4859   4856   4864 1
  4860   4858   4859 1
  4861   4858   4860 1
  4862   4858   4863 1
  4863   4860   4861 1
  4864   4860   4862 1
  4865   4865   4866 1
  4866   4865   4867 1
  4867   4865   4881 1
  4868   4867   4868 1
  4869   4868   4869 1
  4870   4868   4870 1
  4871   4868   4875 1
  4872   4870   4871 1
  4873   4870   4872 1
  4874   4870   4873 1
  4875   4873   4874 1
  4876   4875   4876 1
  4877   4875   4877 1
  4878   4875   4891 1
  4879   4877   4878 1
  4880   4877   4879 1
  4881   4877   4881 1
  4882   4879   4880 1
  4883   4881   4882 1
  4884   4881   4883 1
  4885   4883   4884 1
  4886   4883   4885 1
  4887   4885   4886 1
  4888   4885   4887 1
  4889   4887   4888 1
  4890   4887   4889 1
  4891   4887   4890 1
  4892   4892   4893 1
  4893   4892   4894 1
  4894   4892   4917 1
  4895   4894   4895 1
  4896   4894   4896 1
  4897   4894   4904 1
  4898   4896   4897 1
  4899   4896   4898 1
  4900   4898   4899 1
  4901   4898   4903 1
  4902   4899   4900 1
  4903   4899   4901 1
  4904   4899   4902 1
  4905   4904   4905 1
  4906   4904   4906 1
  4907   4904   4908 1
  4908   4906   4907 1
  4909   4908   4909 1
  4910   4908   4910 1
  4911   4908   4918 1
  4912   4910   4911 1
  4913   4910   4912 1
  4914   4910   4917 1
  4915   4912   4913 1
  4916   4912   4914 1
  4917   4912   4915 1
  4918   4915   4916 1
  4919   4919   4920 1
  4920   4919   4921 1
  4921   4919   4935 1
  4922   4921   4922 1
  4923   4922   4923 1
  4924   4922   4924 1
  4925   4922   4929 1
  4926   4924   4925 1
  4927   4924   4926 1
  4928   4924   4927 1
  4929   4927   4928 1
  4930   4929   4930 1
  4931   4929   4931 1
  4932   4929   4945 1
  4933   4931   4932 1
  4934   4931   4933 1
  4935   4931   4935 1
  4936   4933   4934 1
  4937   4935   4936 1
  4938   4935   4937 1
  4939   4937   4938 1
  4940   4937   4939 1
  4941   4939   4940 1
  4942   4939   4941 1
  4943   4941   4942 1
  4944   4941   4943 1
  4945   4941   4944 1
  4946   4946   4947 1
  4947   4946   4948 1
  4948   4946   4971 1
  4949   4948   4949 1
  4950   4948   4950 1
  4951   4948   4958 1
  4952   4950   4951 1
  4953   4950   4952 1
  4954   4952   4953 1
  4955   4952   4957 1
  4956   4953   4954 1
  4957   4953   4955 1
  4958   4953   4956 1
  4959   4958   4959 1
  4960   4958   4960 1
  4961   4958   4962 1
  4962   4960   4961 1
  4963   4962   4963 1
  4964   4962   4964 1
  4965   4962   4972 1
  4966   4964   4965 1
  4967   4964   4966 1
  4968   4964   4971 1
  4969   4966   4967 1
  4970   4966   4968 1
  4971   4966   4969 1
  4972   4969   4970 1
  4973   4973   4974 1
  4974   4973   4975 1
  4975   4973   4985 1
  4976   4975   4976 1
  4977   4976   4977 1
  4978   4976   4978 1
  4979   4976   4979 1
  4980   4979   4980 1
  4981   4979   4981 1
  4982   4979   4989 1
  4983   4981   4982 1
  4984   4981   4983 1
  4985   4981   4985 1
  4986   4983   4984 1
  4987   4985   4986 1
  4988   4985   4987 1
  4989   4987   4988 1
  4990   4990   4991 1
  4991   4990   4992 1
  4992   4990   5005 1
  4993   4992   4993 1
  4994   4992   4994 1
  4995   4992   4996 1
  4996   4994   4995 1
  4997   4996   4997 1
  4998   4996   4998 1
  4999   4996   5000 1
  5000   4998   4999 1
  5001   5000   5001 1
  5002   5000   5002 1
  5003   5000   5006 1
  5004   5002   5003 1
  5005   5002   5004 1
  5006   5002   5005 1
  5007   5007   5008 1
  5008   5007   5009 1
  5009   5007   5023 1
  5010   5009   5010 1
  5011   5010   5011 1
  5012   5010   5012 1
  5013   5010   5017 1
  5014   5012   5013 1
  5015   5012   5014 1
  5016   5012   5015 1
  5017   5015   5016 1
  5018   5017   5018 1
  5019   5017   5019 1
  5020   5017   5033 1
  5021   5019   5020 1
  5022   5019   5021 1
  5023   5019   5023 1
  5024   5021   5022 1
  5025   5023   5024 1
  5026   5023   5025 1
  5027   5025   5026 1
  5028   5025   5027 1
  5029   5027   5028 1
  5030   5027   5029 1
  5031   5029   5030 1
  5032   5029   5031 1
  5033   5029   5032 1
  5034   5034   5035 1
  5035   5034   5036 1
  5036   5034   5059 1
  5037   5036   5037 1
  5038   5036   5038 1
  5039   5036   5046 1
  5040   5038   5039 1
  5041   5038   5040 1
  5042   5040   5041 1
  5043   5040   5045 1
  5044   5041   5042 1
  5045   5041   5043 1
  5046   5041   5044 1
  5047   5046   5047 1
  5048   5046   5048 1
  5049   5046   5050 1
  5050   5048   5049 1
  5051   5050   5051 1
  5052   5050   5052 1
  5053   5050   5060 1
  5054   5052   5053 1
  5055   5052   5054 1
  5056   5052   5059 1
  5057   5054   5055 1
  5058   5054   5056 1
  5059   5054   5057 1
  5060   5057   5058 1
  5061   5061   5062 1
  5062   5061   5063 1
  5063   5061   5075 1
  5064   5063   5064 1
  5065   5064   5065 1
  5066   5064   5066 1
  5067   5064   5069 1
  5068   5066   5067 1
  5069   5066   5068 1
  5070   5069   5070 1
  5071   5069   5071 1
  5072   5069   5079 1
  5073   5071   5072 1
  5074   5071   5073 1
  5075   5071   5075 1
  5076   5073   5074 1
  5077   5075   5076 1
  5078   5075   5077 1
  5079   5077   5078 1
  5080   5080   5081 1
  5081   5080   5082 1
  5082   5080   5097 1
  5083   5082   5083 1
  5084   5082   5084 1
  5085   5082   5086 1
  5086   5084   5085 1
  5087   5086   5087 1
  5088   5086   5088 1
  5089   5086   5090 1
  5090   5088   5089 1
  5091   5090   5091 1
  5092   5090   5092 1
  5093   5090   5098 1
  5094   5092   5093 1
  5095   5092   5094 1
  5096   5092   5097 1
  5097   5094   5095 1
  5098   5094   5096 1
  5099   5099   5100 1
  5100   5099   5101 1
  5101   5099   5112 1
  5102   5101   5102 1
  5103   5102   5103 1
  5104   5102   5104 1
  5105   5102   5116 1
  5106   5104   5105 1
  5107   5104   5106 1
  5108   5104   5108 1
  5109   5106   5107 1
  5110   5108   5109 1
  5111   5108   5110 1
  5112   5108   5112 1
  5113   5110   5111 1
  5114   5112   5113 1
  5115   5112   5114 1
  5116   5114   5115 1
  5117   5116   5117 1
  5118   5116   5118 1
  5119   5116   5119 1
  5120   5120   5121 1
  5121   5120   5122 1
  5122   5120   5136 1
  5123   5122   5123 1
  5124   5122   5124 1
  5125   5122   5126 1
  5126   5124   5125 1
  5127   5126   5127 1
  5128   5126   5128 1
  5129   5126   5130 1
  5130   5128   5129 1
  5131   5130   5131 1
  5132   5130   5132 1
  5133   5130   5134 1
  5134   5132   5133 1
  5135   5134   5135 1
  5136   5134   5136 1
  5137   5134   5137 1
  5138   5137   5138 1
  5139   5137   5139 1
  5140   5137   5140 1
  5141   5141   5142 1
  5142   5141   5143 1
  5143   5141   5154 1
  5144   5143   5144 1
  5145   5144   5145 1
  5146   5144   5146 1
  5147   5144   5158 1
  5148   5146   5147 1
  5149   5146   5148 1
  5150   5146   5150 1
  5151   5148   5149 1
  5152   5150   5151 1
  5153   5150   5152 1
  5154   5150   5154 1
  5155   5152   5153 1
  5156   5154   5155 1
  5157   5154   5156 1
  5158   5156   5157 1
  5159   5158   5159 1
  5160   5158   5160 1
  5161   5158   5161 1
  5162   5162   5163 1
  5163   5162   5164 1
  5164   5162   5178 1
  5165   5164   5165 1
  5166   5164   5166 1
  5167   5164   5168 1
  5168   5166   5167 1
  5169   5168   5169 1
  5170   5168   5170 1
  5171   5168   5172 1
  5172   5170   5171 1
  5173   5172   5173 1
  5174   5172   5174 1
  5175   5172   5176 1
  5176   5174   5175 1
  5177   5176   5177 1
  5178   5176   5178 1
  5179   5176   5179 1
  5180   5179   5180 1
  5181   5179   5181 1
  5182   5179   5182 1
  5183   5183   5184 1
  5184   5183   5185 1
  5185   5183   5196 1
  5186   5185   5186 1
  5187   5186   5187 1
  5188   5186   5188 1
  5189   5186   5200 1
  5190   5188   5189 1
  5191   5188   5190 1
  5192   5188   5192 1
  5193   5190   5191 1
  5194   5192   5193 1
  5195   5192   5194 1
  5196   5192   5196 1
  5197   5194   5195 1
  5198   5196   5197 1
  5199   5196   5198 1
  5200   5198   5199 1
  5201   5200   5201 1
  5202   5200   5202 1
  5203   5200   5203 1
  5204   5204   5205 1
  5205   5204   5206 1
  5206   5204   5220 1
  5207   5206   5207 1
  5208   5206   5208 1
  5209   5206   5210 1
  5210   5208   5209 1
  5211   5210   5211 1
  5212   5210   5212 1
  5213   5210   5214 1
  5214   5212   5213 1
  5215   5214   5215 1
  5216   5214   5216 1
  5217   5214   5218 1
  5218   5216   5217 1
  5219   5218   5219 1
  5220   5218   5220 1
  5221   5218   5221 1
  5222   5221   5222 1
  5223   5221   5223 1
  5224   5221   5224 1
  5225   5225   5226 1
  5226   5225   5227 1
  5227   5225   5238 1
  5228   5227   5228 1
  5229   5228   5229 1
  5230   5228   5230 1
  5231   5228   5242 1
  5232   5230   5231 1
  5233   5230   5232 1
  5234   5230   5234 1
  5235   5232   5233 1
  5236   5234   5235 1
  5237   5234   5236 1
  5238   5234   5238 1
  5239   5236   5237 1
  5240   5238   5239 1
  5241   5238   5240 1
  5242   5240   5241 1
  5243   5242   5243 1
  5244   5242   5244 1
  5245   5242   5245 1
  5246   5246   5247 1
  5247   5246   5248 1
  5248   5246   5262 1
  5249   5248   5249 1
  5250   5248   5250 1
  5251   5248   5252 1
  5252   5250   5251 1
  5253   5252   5253 1
  5254   5252   5254 1
  5255   5252   5256 1
  5256   5254   5255 1
  5257   5256   5257 1
  5258   5256   5258 1
  5259   5256   5260 1
  5260   5258   5259 1
  5261   5260   5261 1
  5262   5260   5262 1
  5263   5260   5263 1
  5264   5263   5264 1
  5265   5263   5265 1
  5266   5263   5266 1
  5267   5267   5268 1
  5268   5267   5269 1
  5269   5267   5280 1
  5270   5269   5270 1
  5271   5270   5271 1
  5272   5270   5272 1
  5273   5270   5284 1
  5274   5272   5273 1
  5275   5272   5274 1
  5276   5272   5276 1
  5277   5274   5275 1
  5278   5276   5277 1
  5279   5276   5278 1
  5280   5276   5280 1
  5281   5278   5279 1
  5282   5280   5281 1
  5283   5280   5282 1
  5284   5282   5283 1
  5285   5284   5285 1
  5286   5284   5286 1
  5287   5284   5287 1
  5288   5288   5289 1
  5289   5288   5290 1
  5290   5288   5304 1
  5291   5290   5291 1
  5292   5290   5292 1
  5293   5290   5294 1
  5294   5292   5293 1
  5295   5294   5295 1
  5296   5294   5296 1
  5297   5294   5298 1
  5298   5296   5297 1
  5299   5298   5299 1
  5300   5298   5300 1
  5301   5298   5302 1
  5302   5300   5301 1
  5303   5302   5303 1
  5304   5302   5304 1
  5305   5302   5305 1
  5306   5305   5306 1
  5307   5305   5307 1
  5308   5305   5308 1
  5309   5309   5310 1
  5310   5309   5311 1
  5311   5309   5322 1
  5312   5311   5312 1
  5313   5312   5313 1
  5314   5312   5314 1
  5315   5312   5326 1
  5316   5314   5315 1
  5317   5314   5316 1
  5318   5314   5318 1
  5319   5316   5317 1
  5320   5318   5319 1
  5321   5318   5320 1
  5322   5318   5322 1
  5323   5320   5321 1
  5324   5322   5323 1
  5325   5322   5324 1
  5326   5324   5325 1
  5327   5326   5327 1
  5328   5326   5328 1
  5329   5326   5329 1
  5330   5330   5331 1
  5331   5330   5332 1
  5332   5330   5346 1
  5333   5332   5333 1
  5334   5332   5334 1
  5335   5332   5336 1
  5336   5334   5335 1
  5337   5336   5337 1
  5338   5336   5338 1
  5339   5336   5340 1
  5340   5338   5339 1
  5341   5340   5341 1
  5342   5340   5342 1
  5343   5340   5344 1
  5344   5342   5343 1
  5345   5344   5345 1
  5346   5344   5346 1
  5347   5344   5347 1
  5348   5347   5348 1
  5349   5347   5349 1
  5350   5347   5350 1
  5351   5351   5352 1
  5352   5351   5353 1
  5353   5351   5364 1
  5354   5353   5354 1
  5355   5354   5355 1
  5356   5354   5356 1
  5357   5354   5368 1
  5358   5356   5357 1
  5359   5356   5358 1
  5360   5356   5360 1
  5361   5358   5359 1
  5362   5360   5361 1
  5363   5360   5362 1
  5364   5360   5364 1
  5365   5362   5363 1
  5366   5364   5365 1
  5367   5364   5366 1
  5368   5366   5367 1
  5369   5368   5369 1
  5370   5368   5370 1
  5371   5368   5371 1
  5372   5372   5373 1
  5373   5372   5374 1
  5374   5372   5388 1
  5375   5374   5375 1
  5376   5374   5376 1
  5377   5374   5378 1
  5378   5376   5377 1
  5379   5378   5379 1
  5380   5378   5380 1
  5381   5378   5382 1
  5382   5380   5381 1
  5383   5382   5383 1
  5384   5382   5384 1
  5385   5382   5386 1
  5386   5384   5385 1
  5387   5386   5387 1
  5388   5386   5388 1
  5389   5386   5389 1
  5390   5389   5390 1
  5391   5389   5391 1
  5392   5389   5392 1
  5393   5393   5394 1
  5394   5393   5395 1
  5395   5393   5406 1
  5396   5395   5396 1
  5397   5396   5397 1
  5398   5396   5398 1
  5399   5396   5416 1
  5400   5398   5399 1
  5401   5398   5400 1
  5402   5398   5402 1
  5403   5400   5401 1
  5404   5402   5403 1
  5405   5402   5404 1
  5406   5402   5406 1
  5407   5404   5405 1
  5408   5406   5407 1
  5409   5406   5408 1
  5410   5408   5409 1
  5411   5408   5410 1
  5412   5410   5411 1
  5413   5410   5412 1
  5414   5412   5413 1
  5415   5412   5414 1
  5416   5412   5415 1
  5417   5416   5417 1
  5418   5416   5418 1
  5419   5416   5419 1
  5420   5420   5421 1
  5421   5420   5422 1
  5422   5420   5442 1
  5423   5422   5423 1
  5424   5422   5424 1
  5425   5422   5432 1
  5426   5424   5425 1
  5427   5424   5426 1
  5428   5426   5427 1
  5429   5426   5431 1
  5430   5427   5428 1
  5431   5427   5429 1
  5432   5427   5430 1
  5433   5432   5433 1
  5434   5432   5434 1
  5435   5432   5436 1
  5436   5434   5435 1
  5437   5436   5437 1
  5438   5436   5438 1
  5439   5436   5440 1
  5440   5438   5439 1
  5441   5440   5441 1
  5442   5440   5442 1
  5443   5440   5443 1
  5444   5443   5444 1
  5445   5443   5445 1
  5446   5443   5446 1
  5447   5447   5448 1
  5448   5447   5449 1
  5449   5447   5460 1
  5450   5449   5450 1
  5451   5450   5451 1
  5452   5450   5452 1
  5453   5450   5470 1
  5454   5452   5453 1
  5455   5452   5454 1
  5456   5452   5456 1
  5457   5454   5455 1
  5458   5456   5457 1
  5459   5456   5458 1
  5460   5456   5460 1
  5461   5458   5459 1
  5462   5460   5461 1
  5463   5460   5462 1
  5464   5462   5463 1
  5465   5462   5464 1
  5466   5464   5465 1
  5467   5464   5466 1
  5468   5466   5467 1
  5469   5466   5468 1
  5470   5466   5469 1
  5471   5470   5471 1
  5472   5470   5472 1
  5473   5470   5473 1
  5474   5474   5475 1
  5475   5474   5476 1
  5476   5474   5496 1
  5477   5476   5477 1
  5478   5476   5478 1
  5479   5476   5486 1
  5480   5478   5479 1
  5481   5478   5480 1
  5482   5480   5481 1
  5483   5480   5485 1
  5484   5481   5482 1
  5485   5481   5483 1
  5486   5481   5484 1
  5487   5486   5487 1
  5488   5486   5488 1
  5489   5486   5490 1
  5490   5488   5489 1
  5491   5490   5491 1
  5492   5490   5492 1
  5493   5490   5494 1
  5494   5492   5493 1
  5495   5494   5495 1
  5496   5494   5496 1
  5497   5494   5497 1
  5498   5497   5498 1
  5499   5497   5499 1
  5500   5497   5500 1
  5501   5501   5502 1
  5502   5501   5503 1
  5503   5501   5514 1
  5504   5503   5504 1
  5505   5504   5505 1
  5506   5504   5506 1
  5507   5504   5524 1
  5508   5506   5507 1
  5509   5506   5508 1
  5510   5506   5510 1
  5511   5508   5509 1
  5512   5510   5511 1
  5513   5510   5512 1
  5514   5510   5514 1
  5515   5512   5513 1
  5516   5514   5515 1
  5517   5514   5516 1
  5518   5516   5517 1
  5519   5516   5518 1
  5520   5518   5519 1
  5521   5518   5520 1
  5522   5520   5521 1
  5523   5520   5522 1
  5524   5520   5523 1
  5525   5524   5525 1
  5526   5524   5526 1
  5527   5524   5527 1
  5528   5528   5529 1
  5529   5528   5530 1
  5530   5528   5550 1
  5531   5530   5531 1
  5532   5530   5532 1
  5533   5530   5540 1
  5534   5532   5533 1
  5535   5532   5534 1
  5536   5534   5535 1
  5537   5534   5539 1
  5538   5535   5536 1
  5539   5535   5537 1
  5540   5535   5538 1
  5541   5540   5541 1
  5542   5540   5542 1
  5543   5540   5544 1
  5544   5542   5543 1
  5545   5544   5545 1
  5546   5544   5546 1
  5547   5544   5548 1
  5548   5546   5547 1
  5549   5548   5549 1
  5550   5548   5550 1
  5551   5548   5551 1
  5552   5551   5552 1
  5553   5551   5553 1
  5554   5551   5554 1
  5555   5555   5556 1
  5556   5555   5559 1
  5557   5555   5576 1
  5558   5556   5557 1
  5559   5556   5558 1
  5560   5559   5560 1
  5561   5560   5561 1
  5562   5560   5562 1
  5563   5560   5579 1
  5564   5562   5563 1
  5565   5562   5564 1
  5566   5562   5572 1
  5567   5564   5565 1
  5568   5564   5566 1
  5569   5566   5567 1
  5570   5566   5568 1
  5571   5568   5569 1
  5572   5568   5570 1
  5573   5568   5571 1
  5574   5572   5573 1
  5575   5572   5574 1
  5576   5572   5576 1
  5577   5574   5575 1
  5578   5576   5577 1
  5579   5576   5578 1
  5580   5579   5580 1
  5581   5579   5581 1
  5582   5579   5590 1
  5583   5581   5582 1
  5584   5581   5583 1
  5585   5581   5585 1
  5586   5583   5584 1
  5587   5585   5586 1
  5588   5585   5587 1
  5589   5585   5588 1
  5590   5588   5589 1
  5591   5591   5592 1
  5592   5591   5595 1
  5593   5591   5614 1
  5594   5592   5593 1
  5595   5592   5594 1
  5596   5595   5596 1
  5597   5595   5597 1
  5598   5595   5598 1
  5599   5598   5599 1
  5600   5598   5600 1
  5601   5598   5602 1
  5602   5600   5601 1
  5603   5602   5603 1
  5604   5602   5604 1
  5605   5602   5612 1
  5606   5604   5605 1
  5607   5604   5606 1
  5608   5606   5607 1
  5609   5606   5611 1
  5610   5607   5608 1
  5611   5607   5609 1
  5612   5607   5610 1
  5613   5612   5613 1
  5614   5612   5614 1
  5615   5612   5615 1
  5616   5615   5616 1
  5617   5615   5617 1
  5618   5615   5626 1
  5619   5617   5618 1
  5620   5617   5619 1
  5621   5617   5624 1
  5622   5619   5620 1
  5623   5619   5621 1
  5624   5619   5622 1
  5625   5622   5623 1
  5626   5624   5625 1
  5627   5627   5628 1
  5628   5627   5631 1
  5629   5627   5648 1
  5630   5628   5629 1
  5631   5628   5630 1
  5632   5631   5632 1
  5633   5632   5633 1
  5634   5632   5634 1
  5635   5632   5651 1
  5636   5634   5635 1
  5637   5634   5636 1
  5638   5634   5644 1
  5639   5636   5637 1
  5640   5636   5638 1
  5641   5638   5639 1
  5642   5638   5640 1
  5643   5640   5641 1
  5644   5640   5642 1
  5645   5640   5643 1
  5646   5644   5645 1
  5647   5644   5646 1
  5648   5644   5648 1
  5649   5646   5647 1
  5650   5648   5649 1
  5651   5648   5650 1
  5652   5651   5652 1
  5653   5651   5653 1
  5654   5651   5655 1
  5655   5653   5654 1
  5656   5655   5656 1
  5657   5655   5657 1
  5658   5655   5662 1
  5659   5657   5658 1
  5660   5657   5659 1
  5661   5657   5660 1
  5662   5660   5661 1
  5663   5663   5664 1
  5664   5663   5667 1
  5665   5663   5686 1
  5666   5664   5665 1
  5667   5664   5666 1
  5668   5667   5668 1
  5669   5667   5669 1
  5670   5667   5670 1
  5671   5670   5671 1
  5672   5670   5672 1
  5673   5670   5674 1
  5674   5672   5673 1
  5675   5674   5675 1
  5676   5674   5676 1
  5677   5674   5684 1
  5678   5676   5677 1
  5679   5676   5678 1
  5680   5678   5679 1
  5681   5678   5683 1
  5682   5679   5680 1
  5683   5679   5681 1
  5684   5679   5682 1
  5685   5684   5685 1
  5686   5684   5686 1
  5687   5684   5687 1
  5688   5687   5688 1
  5689   5687   5689 1
  5690   5687   5691 1
  5691   5689   5690 1
  5692   5691   5692 1
  5693   5691   5693 1
  5694   5691   5698 1
  5695   5693   5694 1
  5696   5693   5695 1
  5697   5693   5696 1
  5698   5696   5697 1
  5699   5699   5700 1
  5700   5699   5703 1
  5701   5699   5720 1
  5702   5700   5701 1
  5703   5700   5702 1
  5704   5703   5704 1
  5705   5704   5705 1
  5706   5704   5706 1
  5707   5704   5723 1
  5708   5706   5707 1
  5709   5706   5708 1
  5710   5706   5716 1
  5711   5708   5709 1
  5712   5708   5710 1
  5713   5710   5711 1
  5714   5710   5712 1
  5715   5712   5713 1
  5716   5712   5714 1
  5717   5712   5715 1
  5718   5716   5717 1
  5719   5716   5718 1
  5720   5716   5720 1
  5721   5718   5719 1
  5722   5720   5721 1
  5723   5720   5722 1
  5724   5723   5724 1
  5725   5723   5725 1
  5726   5723   5727 1
  5727   5725   5726 1
  5728   5727   5728 1
  5729   5727   5729 1
  5730   5727   5731 1
  5731   5729   5730 1
  5732   5731   5732 1
  5733   5731   5733 1
  5734   5731   5734 1
  5735   5735   5736 1
  5736   5735   5739 1
  5737   5735   5758 1
  5738   5736   5737 1
  5739   5736   5738 1
  5740   5739   5740 1
  5741   5739   5741 1
  5742   5739   5742 1
  5743   5742   5743 1
  5744   5742   5744 1
  5745   5742   5746 1
  5746   5744   5745 1
  5747   5746   5747 1
  5748   5746   5748 1
  5749   5746   5756 1
  5750   5748   5749 1
  5751   5748   5750 1
  5752   5750   5751 1
  5753   5750   5755 1
  5754   5751   5752 1
  5755   5751   5753 1
  5756   5751   5754 1
  5757   5756   5757 1
  5758   5756   5758 1
  5759   5756   5759 1
  5760   5759   5760 1
  5761   5759   5761 1
  5762   5759   5763 1
  5763   5761   5762 1
  5764   5763   5764 1
  5765   5763   5765 1
  5766   5763   5767 1
  5767   5765   5766 1
  5768   5767   5768 1
  5769   5767   5769 1
  5770   5767   5770 1
  5771   5771   5772 1
  5772   5771   5773 1
  5773   5771   5786 1
  5774   5773   5774 1
  5775   5774   5775 1
  5776   5774   5776 1
  5777   5774   5780 1
  5778   5776   5777 1
  5779   5776   5778 1
  5780   5776   5779 1
  5781   5780   5781 1
  5782   5780   5782 1
  5783   5780   5783 1
  5784   5783   5784 1
  5785   5783   5785 1
  5786   5783   5786 1
  5787   5786   5787 1
  5788   5786   5788 1
  5789   5789   5790 1
  5790   5789   5791 1
  5791   5789   5803 1
  5792   5791   5792 1
  5793   5791   5793 1
  5794   5791   5806 1
  5795   5793   5794 1
  5796   5793   5795 1
  5797   5793   5805 1
  5798   5795   5796 1
  5799   5795   5797 1
  5800   5795   5804 1
  5801   5797   5798 1
  5802   5797   5799 1
  5803   5797   5803 1
  5804   5799   5800 1
  5805   5799   5801 1
  5806   5799   5802 1
  5807   5807   5808 1
  5808   5807   5809 1
  5809   5807   5822 1
  5810   5809   5810 1
  5811   5810   5811 1
  5812   5810   5812 1
  5813   5810   5816 1
  5814   5812   5813 1
  5815   5812   5814 1
  5816   5812   5815 1
  5817   5816   5817 1
  5818   5816   5818 1
  5819   5816   5819 1
  5820   5819   5820 1
  5821   5819   5821 1
  5822   5819   5822 1
  5823   5822   5823 1
  5824   5822   5824 1
  5825   5825   5826 1
  5826   5825   5827 1
  5827   5825   5839 1
  5828   5827   5828 1
  5829   5827   5829 1
  5830   5827   5842 1
  5831   5829   5830 1
  5832   5829   5831 1
  5833   5829   5841 1
  5834   5831   5832 1
  5835   5831   5833 1
  5836   5831   5840 1
  5837   5833   5834 1
  5838   5833   5835 1
  5839   5833   5839 1
  5840   5835   5836 1
  5841   5835   5837 1
  5842   5835   5838 1
  5843   5843   5844 1
  5844   5843   5845 1
  5845   5843   5858 1
  5846   5845   5846 1
  5847   5846   5847 1
  5848   5846   5848 1
  5849   5846   5852 1
  5850   5848   5849 1
  5851   5848   5850 1
  5852   5848   5851 1
  5853   5852   5853 1
  5854   5852   5854 1
  5855   5852   5855 1
  5856   5855   5856 1
  5857   5855   5857 1
  5858   5855   5858 1
  5859   5858   5859 1
  5860   5858   5860 1
  5861   5861   5862 1
  5862   5861   5863 1
  5863   5861   5875 1
  5864   5863   5864 1
  5865   5863   5865 1
  5866   5863   5878 1
  5867   5865   5866 1
  5868   5865   5867 1
  5869   5865   5877 1
  5870   5867   5868 1
  5871   5867   5869 1
  5872   5867   5876 1
  5873   5869   5870 1
  5874   5869   5871 1
  5875   5869   5875 1
  5876   5871   5872 1
  5877   5871   5873 1
  5878   5871   5874 1
  5879   5879   5880 1
  5880   5879   5881 1
  5881   5879   5894 1
  5882   5881   5882 1
  5883   5882   5883 1
  5884   5882   5884 1
  5885   5882   5888 1
  5886   5884   5885 1
  5887   5884   5886 1
  5888   5884   5887 1
  5889   5888   5889 1
  5890   5888   5890 1
  5891   5888   5891 1
  5892   5891   5892 1
  5893   5891   5893 1
  5894   5891   5894 1
  5895   5894   5895 1
  5896   5894   5896 1
  5897   5897   5898 1
  5898   5897   5899 1
  5899   5897   5911 1
  5900   5899   5900 1
  5901   5899   5901 1
  5902   5899   5914 1
  5903   5901   5902 1
  5904   5901   5903 1
  5905   5901   5913 1
  5906   5903   5904 1
  5907   5903   5905 1
  5908   5903   5912 1
  5909   5905   5906 1
  5910   5905   5907 1
  5911   5905   5911 1
  5912   5907   5908 1
  5913   5907   5909 1
  5914   5907   5910 1
  5915   5915   5916 1
  5916   5915   5917 1
  5917   5915   5930 1
  5918   5917   5918 1
  5919   5918   5919 1
  5920   5918   5920 1
  5921   5918   5924 1
  5922   5920   5921 1
  5923   5920   5922 1
  5924   5920   5923 1
  5925   5924   5925 1
  5926   5924   5926 1
  5927   5924   5927 1
  5928   5927   5928 1
  5929   5927   5929 1
  5930   5927   5930 1
  5931   5930   5931 1
  5932   5930   5932 1
  5933   5933   5934 1
  5934   5933   5935 1
  5935   5933   5947 1
  5936   5935   5936 1
  5937   5935   5937 1
  5938   5935   5950 1
  5939   5937   5938 1
  5940   5937   5939 1
  5941   5937   5949 1
  5942   5939   5940 1
  5943   5939   5941 1
  5944   5939   5948 1
  5945   5941   5942 1
  5946   5941   5943 1
  5947   5941   5947 1
  5948   5943   5944 1
  5949   5943   5945 1
  5950   5943   5946 1
  5951   5951   5952 1
  5952   5951   5953 1
  5953   5951   5966 1
  5954   5953   5954 1
  5955   5954   5955 1
  5956   5954   5956 1
  5957   5954   5960 1
  5958   5956   5957 1
  5959   5956   5958 1
  5960   5956   5959 1
  5961   5960   5961 1
  5962   5960   5962 1
  5963   5960   5963 1
  5964   5963   5964 1
  5965   5963   5965 1
  5966   5963   5966 1
  5967   5966   5967 1
  5968   5966   5968 1
  5969   5969   5970 1
  5970   5969   5971 1
  5971   5969   5983 1
  5972   5971   5972 1
  5973   5971   5973 1
  5974   5971   5986 1
  5975   5973   5974 1
  5976   5973   5975 1
  5977   5973   5985 1
  5978   5975   5976 1
  5979   5975   5977 1
  5980   5975   5984 1
  5981   5977   5978 1
  5982   5977   5979 1
  5983   5977   5983 1
  5984   5979   5980 1
  5985   5979   5981 1
  5986   5979   5982 1
  5987   5987   5988 1
  5988   5987   5989 1
  5989   5987   6002 1
  5990   5989   5990 1
  5991   5990   5991 1
  5992   5990   5992 1
  5993   5990   5996 1
  5994   5992   5993 1
  5995   5992   5994 1
  5996   5992   5995 1
  5997   5996   5997 1
  5998   5996   5998 1
  5999   5996   5999 1
  6000   5999   6000 1
  6001   5999   6001 1
  6002   5999   6002 1
  6003   6002   6003 1
  6004   6002   6004 1
  6005   6005   6006 1
  6006   6005   6007 1
  6007   6005   6019 1
  6008   6007   6008 1
  6009   6007   6009 1
  6010   6007   6022 1
  6011   6009   6010 1
  6012   6009   6011 1
  6013   6009   6021 1
  6014   6011   6012 1
  6015   6011   6013 1
  6016   6011   6020 1
  6017   6013   6014 1
  6018   6013   6015 1
  6019   6013   6019 1
  6020   6015   6016 1
  6021   6015   6017 1
  6022   6015   6018 1
  6023   6023   6024 1
  6024   6023   6025 1
  6025   6023   6037 1
  6026   6025   6026 1
  6027   6026   6027 1
  6028   6026   6028 1
  6029   6026   6032 1
  6030   6028   6029 1
  6031   6028   6030 1
  6032   6028   6031 1
  6033   6032   6033 1
  6034   6032   6034 1
  6035   6032   6035 1
  6036   6035   6036 1
  6037   6035   6037 1
  6038   6035   6041 1
  6039   6037   6038 1
  6040   6037   6039 1
  6041   6039   6040 1
  6042   6042   6043 1
  6043   6042   6044 1
  6044   6042   6058 1
  6045   6044   6045 1
  6046   6044   6046 1
  6047   6044   6048 1
  6048   6046   6047 1
  6049   6048   6049 1
  6050   6048   6050 1
  6051   6048   6060 1
  6052   6050   6051 1
  6053   6050   6052 1
  6054   6050   6059 1
  6055   6052   6053 1
  6056   6052   6054 1
  6057   6052   6058 1
  6058   6054   6055 1
  6059   6054   6056 1
  6060   6054   6057 1
  6061   6061   6062 1
  6062   6061   6063 1
  6063   6061   6075 1
  6064   6063   6064 1
  6065   6064   6065 1
  6066   6064   6066 1
  6067   6064   6070 1
  6068   6066   6067 1
  6069   6066   6068 1
  6070   6066   6069 1
  6071   6070   6071 1
  6072   6070   6072 1
  6073   6070   6073 1
  6074   6073   6074 1
  6075   6073   6075 1
  6076   6073   6079 1
  6077   6075   6076 1
  6078   6075   6077 1
  6079   6077   6078 1
  6080   6080   6081 1
  6081   6080   6082 1
  6082   6080   6096 1
  6083   6082   6083 1
  6084   6082   6084 1
  6085   6082   6086 1
  6086   6084   6085 1
  6087   6086   6087 1
  6088   6086   6088 1
  6089   6086   6098 1
  6090   6088   6089 1
  6091   6088   6090 1
  6092   6088   6097 1
  6093   6090   6091 1
  6094   6090   6092 1
  6095   6090   6096 1
  6096   6092   6093 1
  6097   6092   6094 1
  6098   6092   6095 1
  6099   6099   6100 1
  6100   6099   6101 1
  6101   6099   6113 1
  6102   6101   6102 1
  6103   6102   6103 1
  6104   6102   6104 1
  6105   6102   6108 1
  6106   6104   6105 1
  6107   6104   6106 1
  6108   6104   6107 1
  6109   6108   6109 1
  6110   6108   6110 1
  6111   6108   6111 1
  6112   6111   6112 1
  6113   6111   6113 1
  6114   6111   6117 1
  6115   6113   6114 1
  6116   6113   6115 1
  6117   6115   6116 1
  6118   6118   6119 1
  6119   6118   6120 1
  6120   6118   6134 1
  6121   6120   6121 1
  6122   6120   6122 1
  6123   6120   6124 1
  6124   6122   6123 1
  6125   6124   6125 1
  6126   6124   6126 1
  6127   6124   6136 1
  6128   6126   6127 1
  6129   6126   6128 1
  6130   6126   6135 1
  6131   6128   6129 1
  6132   6128   6130 1
  6133   6128   6134 1
  6134   6130   6131 1
  6135   6130   6132 1
  6136   6130   6133 1
  6137   6137   6138 1
  6138   6137   6139 1
  6139   6137   6151 1
  6140   6139   6140 1
  6141   6140   6141 1
  6142   6140   6142 1
  6143   6140   6146 1
  6144   6142   6143 1
  6145   6142   6144 1
  6146   6142   6145 1
  6147   6146   6147 1
  6148   6146   6148 1
  6149   6146   6149 1
  6150   6149   6150 1
  6151   6149   6151 1
  6152   6149   6155 1
  6153   6151   6152 1
  6154   6151   6153 1
  6155   6153   6154 1
  6156   6156   6157 1
  6157   6156   6158 1
  6158   6156   6172 1
  6159   6158   6159 1
  6160   6158   6160 1
  6161   6158   6162 1
  6162   6160   6161 1
  6163   6162   6163 1
  6164   6162   6164 1
  6165   6162   6174 1
  6166   6164   6165 1
  6167   6164   6166 1
  6168   6164   6173 1
  6169   6166   6167 1
  6170   6166   6168 1
  6171   6166   6172 1
  6172   6168   6169 1
  6173   6168   6170 1
  6174   6168   6171 1
  6175   6175   6176 1
  6176   6175   6177 1
  6177   6175   6189 1
  6178   6177   6178 1
  6179   6178   6179 1
  6180   6178   6180 1
  6181   6178   6184 1
  6182   6180   6181 1
  6183   6180   6182 1
  6184   6180   6183 1
  6185   6184   6185 1
  6186   6184   6186 1
  6187   6184   6187 1
  6188   6187   6188 1
  6189   6187   6189 1
  6190   6187   6193 1
  6191   6189   6190 1
  6192   6189   6191 1
  6193   6191   6192 1
  6194   6194   6195 1
  6195   6194   6196 1
  6196   6194   6210 1
  6197   6196   6197 1
  6198   6196   6198 1
  6199   6196   6200 1
  6200   6198   6199 1
  6201   6200   6201 1
  6202   6200   6202 1
  6203   6200   6212 1
  6204   6202   6203 1
  6205   6202   6204 1
  6206   6202   6211 1
  6207   6204   6205 1
  6208   6204   6206 1
  6209   6204   6210 1
  6210   6206   6207 1
  6211   6206   6208 1
  6212   6206   6209 1
  6213   6213   6214 1
  6214   6213   6215 1
  6215   6213   6227 1
  6216   6215   6216 1
  6217   6216   6217 1
  6218   6216   6218 1
  6219   6216   6222 1
  6220   6218   6219 1
  6221   6218   6220 1
  6222   6218   6221 1
  6223   6222   6223 1
  6224   6222   6224 1
  6225   6222   6225 1
  6226   6225   6226 1
  6227   6225   6227 1
  6228   6225   6231 1
  6229   6227   6228 1
  6230   6227   6229 1
  6231   6229   6230 1
  6232   6232   6233 1
  6233   6232   6234 1
  6234   6232   6248 1
  6235   6234   6235 1
  6236   6234   6236 1
  6237   6234   6238 1
  6238   6236   6237 1
  6239   6238   6239 1
  6240   6238   6240 1
  6241   6238   6250 1
  6242   6240   6241 1
  6243   6240   6242 1
  6244   6240   6249 1
  6245   6242   6243 1
  6246   6242   6244 1
  6247   6242   6248 1
  6248   6244   6245 1
  6249   6244   6246 1
  6250   6244   6247 1
  6251   6251   6252 1
  6252   6251   6253 1
  6253   6251   6265 1
  6254   6253   6254 1
  6255   6254   6255 1
  6256   6254   6256 1
  6257   6254   6260 1
  6258   6256   6257 1
  6259   6256   6258 1
  6260   6256   6259 1
  6261   6260   6261 1
  6262   6260   6262 1
  6263   6260   6263 1
  6264   6263   6264 1
  6265   6263   6265 1
  6266   6263   6269 1
  6267   6265   6266 1
  6268   6265   6267 1
  6269   6267   6268 1
  6270   6270   6271 1
  6271   6270   6272 1
  6272   6270   6286 1
  6273   6272   6273 1
  6274   6272   6274 1
  6275   6272   6276 1
  6276   6274   6275 1
  6277   6276   6277 1
  6278   6276   6278 1
  6279   6276   6288 1
  6280   6278   6279 1
  6281   6278   6280 1
  6282   6278   6287 1
  6283   6280   6281 1
  6284   6280   6282 1
  6285   6280   6286 1
  6286   6282   6283 1
  6287   6282   6284 1
  6288   6282   6285 1
  6289   6289   6290 1
  6290   6289   6291 1
  6291   6289   6303 1
  6292   6291   6292 1
  6293   6292   6293 1
  6294   6292   6294 1
  6295   6292   6298 1
  6296   6294   6295 1
  6297   6294   6296 1
  6298   6294   6297 1
  6299   6298   6299 1
  6300   6298   6300 1
  6301   6298   6301 1
  6302   6301   6302 1
  6303   6301   6303 1
  6304   6301   6313 1
  6305   6303   6304 1
  6306   6303   6305 1
  6307   6305   6306 1
  6308   6305   6307 1
  6309   6307   6308 1
  6310   6307   6309 1
  6311   6309   6310 1
  6312   6309   6311 1
  6313   6309   6312 1
  6314   6314   6315 1
  6315   6314   6316 1
  6316   6314   6336 1
  6317   6316   6317 1
  6318   6316   6318 1
  6319   6316   6326 1
  6320   6318   6319 1
  6321   6318   6320 1
  6322   6320   6321 1
  6323   6320   6325 1
  6324   6321   6322 1
  6325   6321   6323 1
  6326   6321   6324 1
  6327   6326   6327 1
  6328   6326   6328 1
  6329   6326   6338 1
  6330   6328   6329 1
  6331   6328   6330 1
  6332   6328   6337 1
  6333   6330   6331 1
  6334   6330   6332 1
  6335   6330   6336 1
  6336   6332   6333 1
  6337   6332   6334 1
  6338   6332   6335 1
  6339   6339   6340 1
  6340   6339   6341 1
  6341   6339   6353 1
  6342   6341   6342 1
  6343   6342   6343 1
  6344   6342   6344 1
  6345   6342   6348 1
  6346   6344   6345 1
  6347   6344   6346 1
  6348   6344   6347 1
  6349   6348   6349 1
  6350   6348   6350 1
  6351   6348   6351 1
  6352   6351   6352 1
  6353   6351   6353 1
  6354   6351   6363 1
  6355   6353   6354 1
  6356   6353   6355 1
  6357   6355   6356 1
  6358   6355   6357 1
  6359   6357   6358 1
  6360   6357   6359 1
  6361   6359   6360 1
  6362   6359   6361 1
  6363   6359   6362 1
  6364   6364   6365 1
  6365   6364   6366 1
  6366   6364   6386 1
  6367   6366   6367 1
  6368   6366   6368 1
  6369   6366   6376 1
  6370   6368   6369 1
  6371   6368   6370 1
  6372   6370   6371 1
  6373   6370   6375 1
  6374   6371   6372 1
  6375   6371   6373 1
  6376   6371   6374 1
  6377   6376   6377 1
  6378   6376   6378 1
  6379   6376   6388 1
  6380   6378   6379 1
  6381   6378   6380 1
  6382   6378   6387 1
  6383   6380   6381 1
  6384   6380   6382 1
  6385   6380   6386 1
  6386   6382   6383 1
  6387   6382   6384 1
  6388   6382   6385 1
  6389   6389   6390 1
  6390   6389   6391 1
  6391   6389   6403 1
  6392   6391   6392 1
  6393   6392   6393 1
  6394   6392   6394 1
  6395   6392   6398 1
  6396   6394   6395 1
  6397   6394   6396 1
  6398   6394   6397 1
  6399   6398   6399 1
  6400   6398   6400 1
  6401   6398   6401 1
  6402   6401   6402 1
  6403   6401   6403 1
  6404   6401   6413 1
  6405   6403   6404 1
  6406   6403   6405 1
  6407   6405   6406 1
  6408   6405   6407 1
  6409   6407   6408 1
  6410   6407   6409 1
  6411   6409   6410 1
  6412   6409   6411 1
  6413   6409   6412 1
  6414   6414   6415 1
  6415   6414   6416 1
  6416   6414   6436 1
  6417   6416   6417 1
  6418   6416   6418 1
  6419   6416   6426 1
  6420   6418   6419 1
  6421   6418   6420 1
  6422   6420   6421 1
  6423   6420   6425 1
  6424   6421   6422 1
  6425   6421   6423 1
  6426   6421   6424 1
  6427   6426   6427 1
  6428   6426   6428 1
  6429   6426   6438 1
  6430   6428   6429 1
  6431   6428   6430 1
  6432   6428   6437 1
  6433   6430   6431 1
  6434   6430   6432 1
  6435   6430   6436 1
  6436   6432   6433 1
  6437   6432   6434 1
  6438   6432   6435 1
  6439   6439   6440 1
  6440   6439   6441 1
  6441   6439   6455 1
  6442   6441   6442 1
  6443   6442   6443 1
  6444   6442   6444 1
  6445   6442   6448 1
  6446   6444   6445 1
  6447   6444   6446 1
  6448   6444   6447 1
  6449   6448   6449 1
  6450   6448   6450 1
  6451   6448   6451 1
  6452   6451   6452 1
  6453   6451   6453 1
  6454   6451   6455 1
  6455   6453   6454 1
  6456   6455   6456 1
  6457   6455   6457 1
  6458   6458   6459 1
  6459   6458   6460 1
  6460   6458   6472 1
  6461   6460   6461 1
  6462   6460   6462 1
  6463   6460   6476 1
  6464   6462   6463 1
  6465   6462   6464 1
  6466   6462   6474 1
  6467   6464   6465 1
  6468   6464   6466 1
  6469   6464   6473 1
  6470   6466   6467 1
  6471   6466   6468 1
  6472   6466   6472 1
  6473   6468   6469 1
  6474   6468   6470 1
  6475   6468   6471 1
  6476   6474   6475 1
  6477   6477   6478 1
  6478   6477   6479 1
  6479   6477   6493 1
  6480   6479   6480 1
  6481   6480   6481 1
  6482   6480   6482 1
  6483   6480   6486 1
  6484   6482   6483 1
  6485   6482   6484 1
  6486   6482   6485 1
  6487   6486   6487 1
  6488   6486   6488 1
  6489   6486   6489 1
  6490   6489   6490 1
  6491   6489   6491 1
  6492   6489   6493 1
  6493   6491   6492 1
  6494   6493   6494 1
  6495   6493   6495 1
  6496   6496   6497 1
  6497   6496   6498 1
  6498   6496   6510 1
  6499   6498   6499 1
  6500   6498   6500 1
  6501   6498   6514 1
  6502   6500   6501 1
  6503   6500   6502 1
  6504   6500   6512 1
  6505   6502   6503 1
  6506   6502   6504 1
  6507   6502   6511 1
  6508   6504   6505 1
  6509   6504   6506 1
  6510   6504   6510 1
  6511   6506   6507 1
  6512   6506   6508 1
  6513   6506   6509 1
  6514   6512   6513 1
  6515   6515   6516 1
  6516   6515   6517 1
  6517   6515   6531 1
  6518   6517   6518 1
  6519   6518   6519 1
  6520   6518   6520 1
  6521   6518   6524 1
  6522   6520   6521 1
  6523   6520   6522 1
  6524   6520   6523 1
  6525   6524   6525 1
  6526   6524   6526 1
  6527   6524   6527 1
  6528   6527   6528 1
  6529   6527   6529 1
  6530   6527   6531 1
  6531   6529   6530 1
  6532   6531   6532 1
  6533   6531   6533 1
  6534   6534   6535 1
  6535   6534   6536 1
  6536   6534   6548 1
  6537   6536   6537 1
  6538   6536   6538 1
  6539   6536   6552 1
  6540   6538   6539 1
  6541   6538   6540 1
  6542   6538   6550 1
  6543   6540   6541 1
  6544   6540   6542 1
  6545   6540   6549 1
  6546   6542   6543 1
  6547   6542   6544 1
  6548   6542   6548 1
  6549   6544   6545 1
  6550   6544   6546 1
  6551   6544   6547 1
  6552   6550   6551 1
  6553   6553   6554 1
  6554   6553   6555 1
  6555   6553   6569 1
  6556   6555   6556 1
  6557   6556   6557 1
  6558   6556   6558 1
  6559   6556   6562 1
  6560   6558   6559 1
  6561   6558   6560 1
  6562   6558   6561 1
  6563   6562   6563 1
  6564   6562   6564 1
  6565   6562   6565 1
  6566   6565   6566 1
  6567   6565   6567 1
  6568   6565   6569 1
  6569   6567   6568 1
  6570   6569   6570 1
  6571   6569   6571 1
  6572   6572   6573 1
  6573   6572   6574 1
  6574   6572   6586 1
  6575   6574   6575 1
  6576   6574   6576 1
  6577   6574   6590 1
  6578   6576   6577 1
  6579   6576   6578 1
  6580   6576   6588 1
  6581   6578   6579 1
  6582   6578   6580 1
  6583   6578   6587 1
  6584   6580   6581 1
  6585   6580   6582 1
  6586   6580   6586 1
  6587   6582   6583 1
  6588   6582   6584 1
  6589   6582   6585 1
  6590   6588   6589 1
  6591   6591   6592 1
  6592   6591   6593 1
  6593   6591   6607 1
  6594   6593   6594 1
  6595   6594   6595 1
  6596   6594   6596 1
  6597   6594   6600 1
  6598   6596   6597 1
  6599   6596   6598 1
  6600   6596   6599 1
  6601   6600   6601 1
  6602   6600   6602 1
  6603   6600   6603 1
  6604   6603   6604 1
  6605   6603   6605 1
  6606   6603   6607 1
  6607   6605   6606 1
  6608   6607   6608 1
  6609   6607   6609 1
  6610   6610   6611 1
  6611   6610   6612 1
  6612   6610   6624 1
  6613   6612   6613 1
  6614   6612   6614 1
  6615   6612   6628 1
  6616   6614   6615 1
  6617   6614   6616 1
  6618   6614   6626 1
  6619   6616   6617 1
  6620   6616   6618 1
  6621   6616   6625 1
  6622   6618   6619 1
  6623   6618   6620 1
  6624   6618   6624 1
  6625   6620   6621 1
  6626   6620   6622 1
  6627   6620   6623 1
  6628   6626   6627 1
  6629   6629   6630 1
  6630   6629   6631 1
  6631   6629   6645 1
  6632   6631   6632 1
  6633   6632   6633 1
  6634   6632   6634 1
  6635   6632   6638 1
  6636   6634   6635 1
  6637   6634   6636 1
  6638   6634   6637 1
  6639   6638   6639 1
  6640   6638   6640 1
  6641   6638   6641 1
  6642   6641   6642 1
  6643   6641   6643 1
  6644   6641   6645 1
  6645   6643   6644 1
  6646   6645   6646 1
  6647   6645   6647 1
  6648   6648   6649 1
  6649   6648   6650 1
  6650   6648   6662 1
  6651   6650   6651 1
  6652   6650   6652 1
  6653   6650   6666 1
  6654   6652   6653 1
  6655   6652   6654 1
  6656   6652   6664 1
  6657   6654   6655 1
  6658   6654   6656 1
  6659   6654   6663 1
  6660   6656   6657 1
  6661   6656   6658 1
  6662   6656   6662 1
  6663   6658   6659 1
  6664   6658   6660 1
  6665   6658   6661 1
  6666   6664   6665 1
  6667   6667   6668 1
  6668   6667   6669 1
  6669   6667   6683 1
  6670   6669   6670 1
  6671   6670   6671 1
  6672   6670   6672 1
  6673   6670   6676 1
  6674   6672   6673 1
  6675   6672   6674 1
  6676   6672   6675 1
  6677   6676   6677 1
  6678   6676   6678 1
  6679   6676   6679 1
  6680   6679   6680 1
  6681   6679   6681 1
  6682   6679   6683 1
  6683   6681   6682 1
  6684   6683   6684 1
  6685   6683   6685 1
  6686   6686   6687 1
  6687   6686   6688 1
  6688   6686   6700 1
  6689   6688   6689 1
  6690   6688   6690 1
  6691   6688   6704 1
  6692   6690   6691 1
  6693   6690   6692 1
  6694   6690   6702 1
  6695   6692   6693 1
  6696   6692   6694 1
  6697   6692   6701 1
  6698   6694   6695 1
  6699   6694   6696 1
  6700   6694   6700 1
  6701   6696   6697 1
  6702   6696   6698 1
  6703   6696   6699 1
  6704   6702   6703 1
  6705   6705   6706 1
  6706   6705   6707 1
  6707   6705   6721 1
  6708   6707   6708 1
  6709   6708   6709 1
  6710   6708   6710 1
  6711   6708   6714 1
  6712   6710   6711 1
  6713   6710   6712 1
  6714   6710   6713 1
  6715   6714   6715 1
  6716   6714   6716 1
  6717   6714   6718 1
  6718   6716   6717 1
  6719   6718   6719 1
  6720   6718   6720 1
  6721   6718   6721 1
  6722   6721   6722 1
  6723   6721   6723 1
  6724   6724   6725 1
  6725   6724   6726 1
  6726   6724   6738 1
  6727   6726   6727 1
  6728   6726   6728 1
  6729   6726   6742 1
  6730   6728   6729 1
  6731   6728   6730 1
  6732   6728   6741 1
  6733   6730   6731 1
  6734   6730   6732 1
  6735   6730   6739 1
  6736   6732   6733 1
  6737   6732   6734 1
  6738   6732   6738 1
  6739   6734   6735 1
  6740   6734   6736 1
  6741   6734   6737 1
  6742   6739   6740 1
  6743   6743   6744 1
  6744   6743   6745 1
  6745   6743   6759 1
  6746   6745   6746 1
  6747   6746   6747 1
  6748   6746   6748 1
  6749   6746   6752 1
  6750   6748   6749 1
  6751   6748   6750 1
  6752   6748   6751 1
  6753   6752   6753 1
  6754   6752   6754 1
  6755   6752   6756 1
  6756   6754   6755 1
  6757   6756   6757 1
  6758   6756   6758 1
  6759   6756   6759 1
  6760   6759   6760 1
  6761   6759   6761 1
  6762   6762   6763 1
  6763   6762   6764 1
  6764   6762   6776 1
  6765   6764   6765 1
  6766   6764   6766 1
  6767   6764   6780 1
  6768   6766   6767 1
  6769   6766   6768 1
  6770   6766   6779 1
  6771   6768   6769 1
  6772   6768   6770 1
  6773   6768   6777 1
  6774   6770   6771 1
  6775   6770   6772 1
  6776   6770   6776 1
  6777   6772   6773 1
  6778   6772   6774 1
  6779   6772   6775 1
  6780   6777   6778 1
  6781   6781   6782 1
  6782   6781   6783 1
  6783   6781   6797 1
  6784   6783   6784 1
  6785   6784   6785 1
  6786   6784   6786 1
  6787   6784   6790 1
  6788   6786   6787 1
  6789   6786   6788 1
  6790   6786   6789 1
  6791   6790   6791 1
  6792   6790   6792 1
  6793   6790   6794 1
  6794   6792   6793 1
  6795   6794   6795 1
  6796   6794   6796 1
  6797   6794   6797 1
  6798   6797   6798 1
  6799   6797   6799 1
  6800   6800   6801 1
  6801   6800   6802 1
  6802   6800   6814 1
  6803   6802   6803 1
  6804   6802   6804 1
  6805   6802   6818 1
  6806   6804   6805 1
  6807   6804   6806 1
  6808   6804   6817 1
  6809   6806   6807 1
  6810   6806   6808 1
  6811   6806   6815 1
  6812   6808   6809 1
  6813   6808   6810 1
  6814   6808   6814 1
  6815   6810   6811 1
  6816   6810   6812 1
  6817   6810   6813 1
  6818   6815   6816 1
  6819   6819   6820 1
  6820   6819   6821 1
  6821   6819   6835 1
  6822   6821   6822 1
  6823   6822   6823 1
  6824   6822   6824 1
  6825   6822   6828 1
  6826   6824   6825 1
  6827   6824   6826 1
  6828   6824   6827 1
  6829   6828   6829 1
  6830   6828   6830 1
  6831   6828   6832 1
  6832   6830   6831 1
  6833   6832   6833 1
  6834   6832   6834 1
  6835   6832   6835 1
  6836   6835   6836 1
  6837   6835   6837 1
  6838   6838   6839 1
  6839   6838   6840 1
  6840   6838   6852 1
  6841   6840   6841 1
  6842   6840   6842 1
  6843   6840   6856 1
  6844   6842   6843 1
  6845   6842   6844 1
  6846   6842   6855 1
  6847   6844   6845 1
  6848   6844   6846 1
  6849   6844   6853 1
  6850   6846   6847 1
  6851   6846   6848 1
  6852   6846   6852 1
  6853   6848   6849 1
  6854   6848   6850 1
  6855   6848   6851 1
  6856   6853   6854 1
  6857   6857   6858 1
  6858   6857   6859 1
  6859   6857   6873 1
  6860   6859   6860 1
  6861   6860   6861 1
  6862   6860   6862 1
  6863   6860   6866 1
  6864   6862   6863 1
  6865   6862   6864 1
  6866   6862   6865 1
  6867   6866   6867 1
  6868   6866   6868 1
  6869   6866   6870 1
  6870   6868   6869 1
  6871   6870   6871 1
  6872   6870   6872 1
  6873   6870   6873 1
  6874   6873   6874 1
  6875   6873   6875 1
  6876   6876   6877 1
  6877   6876   6878 1
  6878   6876   6890 1
  6879   6878   6879 1
  6880   6878   6880 1
  6881   6878   6894 1
  6882   6880   6881 1
  6883   6880   6882 1
  6884   6880   6893 1
  6885   6882   6883 1
  6886   6882   6884 1
  6887   6882   6891 1
  6888   6884   6885 1
  6889   6884   6886 1
  6890   6884   6890 1
  6891   6886   6887 1
  6892   6886   6888 1
  6893   6886   6889 1
  6894   6891   6892 1
  6895   6895   6896 1
  6896   6895   6897 1
  6897   6895   6911 1
  6898   6897   6898 1
  6899   6898   6899 1
  6900   6898   6900 1
  6901   6898   6904 1
  6902   6900   6901 1
  6903   6900   6902 1
  6904   6900   6903 1
  6905   6904   6905 1
  6906   6904   6906 1
  6907   6904   6908 1
  6908   6906   6907 1
  6909   6908   6909 1
  6910   6908   6910 1
  6911   6908   6911 1
  6912   6911   6912 1
  6913   6911   6913 1
  6914   6914   6915 1
  6915   6914   6916 1
  6916   6914   6928 1
  6917   6916   6917 1
  6918   6916   6918 1
  6919   6916   6932 1
  6920   6918   6919 1
  6921   6918   6920 1
  6922   6918   6931 1
  6923   6920   6921 1
  6924   6920   6922 1
  6925   6920   6929 1
  6926   6922   6923 1
  6927   6922   6924 1
  6928   6922   6928 1
  6929   6924   6925 1
  6930   6924   6926 1
  6931   6924   6927 1
  6932   6929   6930 1
  6933   6933   6934 1
  6934   6933   6935 1
  6935   6933   6949 1
  6936   6935   6936 1
  6937   6936   6937 1
  6938   6936   6938 1
  6939   6936   6942 1
  6940   6938   6939 1
  6941   6938   6940 1
  6942   6938   6941 1
  6943   6942   6943 1
  6944   6942   6944 1
  6945   6942   6946 1
  6946   6944   6945 1
  6947   6946   6947 1
  6948   6946   6948 1
  6949   6946   6949 1
  6950   6949   6950 1
  6951   6949   6951 1
  6952   6952   6953 1
  6953   6952   6954 1
  6954   6952   6966 1
  6955   6954   6955 1
  6956   6954   6956 1
  6957   6954   6970 1
  6958   6956   6957 1
  6959   6956   6958 1
  6960   6956   6969 1
  6961   6958   6959 1
  6962   6958   6960 1
  6963   6958   6967 1
  6964   6960   6961 1
  6965   6960   6962 1
  6966   6960   6966 1
  6967   6962   6963 1
  6968   6962   6964 1
  6969   6962   6965 1
  6970   6967   6968 1
  6971   6971   6972 1
  6972   6971   6973 1
  6973   6971   6983 1
  6974   6973   6974 1
  6975   6974   6975 1
  6976   6974   6976 1
  6977   6974   6977 1
  6978   6977   6978 1
  6979   6977   6979 1
  6980   6977   6980 1
  6981   6980   6981 1
  6982   6980   6982 1
  6983   6980   6983 1
  6984   6983   6984 1
  6985   6983   6985 1
  6986   6986   6987 1
  6987   6986   6988 1
  6988   6986   6997 1
  6989   6988   6989 1
  6990   6988   6990 1
  6991   6988   7000 1
  6992   6990   6991 1
  6993   6990   6992 1
  6994   6990   6999 1
  6995   6992   6993 1
  6996   6992   6994 1
  6997   6992   6998 1
  6998   6994   6995 1
  6999   6994   6996 1
  7000   6994   6997 1
  7001   7001   7002 1
  7002   7001   7003 1
  7003   7001   7013 1
  7004   7003   7004 1
  7005   7004   7005 1
  7006   7004   7006 1
  7007   7004   7007 1
  7008   7007   7008 1
  7009   7007   7009 1
  7010   7007   7010 1
  7011   7010   7011 1
  7012   7010   7012 1
  7013   7010   7013 1
  7014   7013   7014 1
  7015   7013   7015 1
  7016   7016   7017 1
  7017   7016   7018 1
  7018   7016   7027 1
  7019   7018   7019 1
  7020   7018   7020 1
  7021   7018   7030 1
  7022   7020   7021 1
  7023   7020   7022 1
  7024   7020   7029 1
  7025   7022   7023 1
  7026   7022   7024 1
  7027   7022   7028 1
  7028   7024   7025 1
  7029   7024   7026 1
  7030   7024   7027 1
  7031   7031   7032 1
  7032   7031   7033 1
  7033   7031   7047 1
  7034   7033   7034 1
  7035   7034   7035 1
  7036   7034   7036 1
  7037   7034   7041 1
  7038   7036   7037 1
  7039   7036   7038 1
  7040   7036   7039 1
  7041   7039   7040 1
  7042   7041   7042 1
  7043   7041   7043 1
  7044   7041   7044 1
  7045   7044   7045 1
  7046   7044   7046 1
  7047   7044   7047 1
  7048   7047   7048 1
  7049   7047   7049 1
  7050   7050   7051 1
  7051   7050   7052 1
  7052   7050   7065 1
  7053   7052   7053 1
  7054   7052   7054 1
  7055   7052   7068 1
  7056   7054   7055 1
  7057   7054   7056 1
  7058   7054   7067 1
  7059   7056   7057 1
  7060   7056   7058 1
  7061   7056   7066 1
  7062   7058   7059 1
  7063   7058   7060 1
  7064   7058   7065 1
  7065   7060   7061 1
  7066   7060   7062 1
  7067   7060   7063 1
  7068   7063   7064 1
  7069   7069   7070 1
  7070   7069   7071 1
  7071   7069   7084 1
  7072   7071   7072 1
  7073   7072   7073 1
  7074   7072   7074 1
  7075   7072   7078 1
  7076   7074   7075 1
  7077   7074   7076 1
  7078   7074   7077 1
  7079   7078   7079 1
  7080   7078   7080 1
  7081   7078   7081 1
  7082   7081   7082 1
  7083   7081   7083 1
  7084   7081   7084 1
  7085   7084   7085 1
  7086   7084   7086 1
  7087   7087   7088 1
  7088   7087   7089 1
  7089   7087   7101 1
  7090   7089   7090 1
  7091   7089   7091 1
  7092   7089   7104 1
  7093   7091   7092 1
  7094   7091   7093 1
  7095   7091   7103 1
  7096   7093   7094 1
  7097   7093   7095 1
  7098   7093   7102 1
  7099   7095   7096 1
  7100   7095   7097 1
  7101   7095   7101 1
  7102   7097   7098 1
  7103   7097   7099 1
  7104   7097   7100 1
  7105   7105   7106 1
  7106   7105   7107 1
  7107   7105   7121 1
  7108   7107   7108 1
  7109   7108   7109 1
  7110   7108   7110 1
  7111   7108   7115 1
  7112   7110   7111 1
  7113   7110   7112 1
  7114   7110   7113 1
  7115   7113   7114 1
  7116   7115   7116 1
  7117   7115   7117 1
  7118   7115   7118 1
  7119   7118   7119 1
  7120   7118   7120 1
  7121   7118   7121 1
  7122   7121   7122 1
  7123   7121   7123 1
  7124   7124   7125 1
  7125   7124   7126 1
  7126   7124   7139 1
  7127   7126   7127 1
  7128   7126   7128 1
  7129   7126   7142 1
  7130   7128   7129 1
  7131   7128   7130 1
  7132   7128   7141 1
  7133   7130   7131 1
  7134   7130   7132 1
  7135   7130   7140 1
  7136   7132   7133 1
  7137   7132   7134 1
  7138   7132   7139 1
  7139   7134   7135 1
  7140   7134   7136 1
  7141   7134   7137 1
  7142   7137   7138 1
  7143   7143   7144 1
  7144   7143   7145 1
  7145   7143   7158 1
  7146   7145   7146 1
  7147   7146   7147 1
  7148   7146   7148 1
  7149   7146   7152 1
  7150   7148   7149 1
  7151   7148   7150 1
  7152   7148   7151 1
  7153   7152   7153 1
  7154   7152   7154 1
  7155   7152   7155 1
  7156   7155   7156 1
  7157   7155   7157 1
  7158   7155   7158 1
  7159   7158   7159 1
  7160   7158   7160 1
  7161   7161   7162 1
  7162   7161   7163 1
  7163   7161   7175 1
  7164   7163   7164 1
  7165   7163   7165 1
  7166   7163   7178 1
  7167   7165   7166 1
  7168   7165   7167 1
  7169   7165   7177 1
  7170   7167   7168 1
  7171   7167   7169 1
  7172   7167   7176 1
  7173   7169   7170 1
  7174   7169   7171 1
  7175   7169   7175 1
  7176   7171   7172 1
  7177   7171   7173 1
  7178   7171   7174 1
  7179   7179   7180 1
  7180   7179   7181 1
  7181   7179   7195 1
  7182   7181   7182 1
  7183   7182   7183 1
  7184   7182   7184 1
  7185   7182   7189 1
  7186   7184   7185 1
  7187   7184   7186 1
  7188   7184   7187 1
  7189   7187   7188 1
  7190   7189   7190 1
  7191   7189   7191 1
  7192   7189   7192 1
  7193   7192   7193 1
  7194   7192   7194 1
  7195   7192   7195 1
  7196   7195   7196 1
  7197   7195   7197 1
  7198   7198   7199 1
  7199   7198   7200 1
  7200   7198   7213 1
  7201   7200   7201 1
  7202   7200   7202 1
  7203   7200   7216 1
  7204   7202   7203 1
  7205   7202   7204 1
  7206   7202   7215 1
  7207   7204   7205 1
  7208   7204   7206 1
  7209   7204   7214 1
  7210   7206   7207 1
  7211   7206   7208 1
  7212   7206   7213 1
  7213   7208   7209 1
  7214   7208   7210 1
  7215   7208   7211 1
  7216   7211   7212 1
  7217   7217   7218 1
  7218   7217   7219 1
  7219   7217   7233 1
  7220   7219   7220 1
  7221   7220   7221 1
  7222   7220   7222 1
  7223   7220   7227 1
  7224   7222   7223 1
  7225   7222   7224 1
  7226   7222   7225 1
  7227   7225   7226 1
  7228   7227   7228 1
  7229   7227   7229 1
  7230   7227   7230 1
  7231   7230   7231 1
  7232   7230   7232 1
  7233   7230   7233 1
  7234   7233   7234 1
  7235   7233   7235 1
  7236   7236   7237 1
  7237   7236   7238 1
  7238   7236   7251 1
  7239   7238   7239 1
  7240   7238   7240 1
  7241   7238   7254 1
  7242   7240   7241 1
  7243   7240   7242 1
  7244   7240   7253 1
  7245   7242   7243 1
  7246   7242   7244 1
  7247   7242   7252 1
  7248   7244   7245 1
  7249   7244   7246 1
  7250   7244   7251 1
  7251   7246   7247 1
  7252   7246   7248 1
  7253   7246   7249 1
  7254   7249   7250 1
  7255   7255   7256 1
  7256   7255   7257 1
  7257   7255   7271 1
  7258   7257   7258 1
  7259   7258   7259 1
  7260   7258   7260 1
  7261   7258   7265 1
  7262   7260   7261 1
  7263   7260   7262 1
  7264   7260   7263 1
  7265   7263   7264 1
  7266   7265   7266 1
  7267   7265   7267 1
  7268   7265   7268 1
  7269   7268   7269 1
  7270   7268   7270 1
  7271   7268   7271 1
  7272   7271   7272 1
  7273   7271   7273 1
  7274   7274   7275 1
  7275   7274   7276 1
  7276   7274   7289 1
  7277   7276   7277 1
  7278   7276   7278 1
  7279   7276   7292 1
  7280   7278   7279 1
  7281   7278   7280 1
  7282   7278   7291 1
  7283   7280   7281 1
  7284   7280   7282 1
  7285   7280   7290 1
  7286   7282   7283 1
  7287   7282   7284 1
  7288   7282   7289 1
  7289   7284   7285 1
  7290   7284   7286 1
  7291   7284   7287 1
  7292   7287   7288 1
  7293   7293   7294 1
  7294   7293   7295 1
  7295   7293   7309 1
  7296   7295   7296 1
  7297   7296   7297 1
  7298   7296   7298 1
  7299   7296   7303 1
  7300   7298   7299 1
  7301   7298   7300 1
  7302   7298   7301 1
  7303   7301   7302 1
  7304   7303   7304 1
  7305   7303   7305 1
  7306   7303   7306 1
  7307   7306   7307 1
  7308   7306   7308 1
  7309   7306   7309 1
  7310   7309   7310 1
  7311   7309   7311 1
  7312   7312   7313 1
  7313   7312   7314 1
  7314   7312   7327 1
  7315   7314   7315 1
  7316   7314   7316 1
  7317   7314   7330 1
  7318   7316   7317 1
  7319   7316   7318 1
  7320   7316   7329 1
  7321   7318   7319 1
  7322   7318   7320 1
  7323   7318   7328 1
  7324   7320   7321 1
  7325   7320   7322 1
  7326   7320   7327 1
  7327   7322   7323 1
  7328   7322   7324 1
  7329   7322   7325 1
  7330   7325   7326 1
  7331   7331   7332 1
  7332   7331   7333 1
  7333   7331   7345 1
  7334   7333   7334 1
  7335   7334   7335 1
  7336   7334   7336 1
  7337   7334   7339 1
  7338   7336   7337 1
  7339   7336   7338 1
  7340   7339   7340 1
  7341   7339   7341 1
  7342   7339   7342 1
  7343   7342   7343 1
  7344   7342   7344 1
  7345   7342   7345 1
  7346   7345   7346 1
  7347   7345   7347 1
  7348   7348   7349 1
  7349   7348   7350 1
  7350   7348   7361 1
  7351   7350   7351 1
  7352   7350   7352 1
  7353   7350   7364 1
  7354   7352   7353 1
  7355   7352   7354 1
  7356   7352   7363 1
  7357   7354   7355 1
  7358   7354   7356 1
  7359   7354   7362 1
  7360   7356   7357 1
  7361   7356   7358 1
  7362   7356   7361 1
  7363   7358   7359 1
  7364   7358   7360 1
  7365   7365   7366 1
  7366   7365   7367 1
  7367   7365   7380 1
  7368   7367   7368 1
  7369   7368   7369 1
  7370   7368   7370 1
  7371   7368   7374 1
  7372   7370   7371 1
  7373   7370   7372 1
  7374   7370   7373 1
  7375   7374   7375 1
  7376   7374   7376 1
  7377   7374   7377 1
  7378   7377   7378 1
  7379   7377   7379 1
  7380   7377   7380 1
  7381   7380   7381 1
  7382   7380   7382 1
  7383   7383   7384 1
  7384   7383   7385 1
  7385   7383   7397 1
  7386   7385   7386 1
  7387   7385   7387 1
  7388   7385   7400 1
  7389   7387   7388 1
  7390   7387   7389 1
  7391   7387   7399 1
  7392   7389   7390 1
  7393   7389   7391 1
  7394   7389   7398 1
  7395   7391   7392 1
  7396   7391   7393 1
  7397   7391   7397 1
  7398   7393   7394 1
  7399   7393   7395 1
  7400   7393   7396 1
  7401   7401   7402 1
  7402   7401   7403 1
  7403   7401   7413 1
  7404   7403   7404 1
  7405   7404   7405 1
  7406   7404   7406 1
  7407   7404   7407 1
  7408   7407   7408 1
  7409   7407   7409 1
  7410   7407   7410 1
  7411   7410   7411 1
  7412   7410   7412 1
  7413   7410   7413 1
  7414   7413   7414 1
  7415   7413   7415 1
  7416   7416   7417 1
  7417   7416   7418 1
  7418   7416   7427 1
  7419   7418   7419 1
  7420   7418   7420 1
  7421   7418   7430 1
  7422   7420   7421 1
  7423   7420   7422 1
  7424   7420   7429 1
  7425   7422   7423 1
  7426   7422   7424 1
  7427   7422   7428 1
  7428   7424   7425 1
  7429   7424   7426 1
  7430   7424   7427 1
  7431   7431   7432 1
  7432   7431   7433 1
  7433   7431   7447 1
  7434   7433   7434 1
  7435   7434   7435 1
  7436   7434   7436 1
  7437   7434   7441 1
  7438   7436   7437 1
  7439   7436   7438 1
  7440   7436   7439 1
  7441   7439   7440 1
  7442   7441   7442 1
  7443   7441   7443 1
  7444   7441   7444 1
  7445   7444   7445 1
  7446   7444   7446 1
  7447   7444   7447 1
  7448   7447   7448 1
  7449   7447   7449 1
  7450   7450   7451 1
  7451   7450   7452 1
  7452   7450   7465 1
  7453   7452   7453 1
  7454   7452   7454 1
  7455   7452   7468 1
  7456   7454   7455 1
  7457   7454   7456 1
  7458   7454   7467 1
  7459   7456   7457 1
  7460   7456   7458 1
  7461   7456   7466 1
  7462   7458   7459 1
  7463   7458   7460 1
  7464   7458   7465 1
  7465   7460   7461 1
  7466   7460   7462 1
  7467   7460   7463 1
  7468   7463   7464 1
  7469   7469   7470 1
  7470   7469   7471 1
  7471   7469   7483 1
  7472   7471   7472 1
  7473   7472   7473 1
  7474   7472   7474 1
  7475   7472   7477 1
  7476   7474   7475 1
  7477   7474   7476 1
  7478   7477   7478 1
  7479   7477   7479 1
  7480   7477   7480 1
  7481   7480   7481 1
  7482   7480   7482 1
  7483   7480   7483 1
  7484   7483   7484 1
  7485   7483   7485 1
  7486   7486   7487 1
  7487   7486   7488 1
  7488   7486   7499 1
  7489   7488   7489 1
  7490   7488   7490 1
  7491   7488   7502 1
  7492   7490   7491 1
  7493   7490   7492 1
  7494   7490   7501 1
  7495   7492   7493 1
  7496   7492   7494 1
  7497   7492   7500 1
  7498   7494   7495 1
  7499   7494   7496 1
  7500   7494   7499 1
  7501   7496   7497 1
  7502   7496   7498 1
  7503   7503   7504 1
  7504   7503   7505 1
  7505   7503   7515 1
  7506   7505   7506 1
  7507   7506   7507 1
  7508   7506   7508 1
  7509   7506   7509 1
  7510   7509   7510 1
  7511   7509   7511 1
  7512   7509   7512 1
  7513   7512   7513 1
  7514   7512   7514 1
  7515   7512   7515 1
  7516   7515   7516 1
  7517   7515   7517 1
  7518   7518   7519 1
  7519   7518   7520 1
  7520   7518   7529 1
  7521   7520   7521 1
  7522   7520   7522 1
  7523   7520   7532 1
  7524   7522   7523 1
  7525   7522   7524 1
  7526   7522   7531 1
  7527   7524   7525 1
  7528   7524   7526 1
  7529   7524   7530 1
  7530   7526   7527 1
  7531   7526   7528 1
  7532   7526   7529 1
  7533   7533   7534 1
  7534   7533   7535 1
  7535   7533   7547 1
  7536   7535   7536 1
  7537   7536   7537 1
  7538   7536   7538 1
  7539   7536   7541 1
  7540   7538   7539 1
  7541   7538   7540 1
  7542   7541   7542 1
  7543   7541   7543 1
  7544   7541   7544 1
  7545   7544   7545 1
  7546   7544   7546 1
  7547   7544   7547 1
  7548   7547   7548 1
  7549   7547   7549 1
  7550   7550   7551 1
  7551   7550   7552 1
  7552   7550   7563 1
  7553   7552   7553 1
  7554   7552   7554 1
  7555   7552   7566 1
  7556   7554   7555 1
  7557   7554   7556 1
  7558   7554   7565 1
  7559   7556   7557 1
  7560   7556   7558 1
  7561   7556   7564 1
  7562   7558   7559 1
  7563   7558   7560 1
  7564   7558   7563 1
  7565   7560   7561 1
  7566   7560   7562 1
  7567   7567   7568 1
  7568   7567   7569 1
  7569   7567   7582 1
  7570   7569   7570 1
  7571   7570   7571 1
  7572   7570   7572 1
  7573   7570   7576 1
  7574   7572   7573 1
  7575   7572   7574 1
  7576   7572   7575 1
  7577   7576   7577 1
  7578   7576   7578 1
  7579   7576   7586 1
  7580   7578   7579 1
  7581   7578   7580 1
  7582   7578   7582 1
  7583   7580   7581 1
  7584   7582   7583 1
  7585   7582   7584 1
  7586   7584   7585 1
  7587   7587   7588 1
  7588   7587   7589 1
  7589   7587   7605 1
  7590   7589   7590 1
  7591   7589   7591 1
  7592   7589   7593 1
  7593   7591   7592 1
  7594   7593   7594 1
  7595   7593   7595 1
  7596   7593   7597 1
  7597   7595   7596 1
  7598   7597   7598 1
  7599   7597   7599 1
  7600   7597   7606 1
  7601   7599   7600 1
  7602   7599   7601 1
  7603   7599   7605 1
  7604   7601   7602 1
  7605   7601   7603 1
  7606   7601   7604 1
  7607   7607   7608 1
  7608   7607   7609 1
  7609   7607   7622 1
  7610   7609   7610 1
  7611   7610   7611 1
  7612   7610   7612 1
  7613   7610   7616 1
  7614   7612   7613 1
  7615   7612   7614 1
  7616   7612   7615 1
  7617   7616   7617 1
  7618   7616   7618 1
  7619   7616   7626 1
  7620   7618   7619 1
  7621   7618   7620 1
  7622   7618   7622 1
  7623   7620   7621 1
  7624   7622   7623 1
  7625   7622   7624 1
  7626   7624   7625 1
  7627   7627   7628 1
  7628   7627   7629 1
  7629   7627   7645 1
  7630   7629   7630 1
  7631   7629   7631 1
  7632   7629   7633 1
  7633   7631   7632 1
  7634   7633   7634 1
  7635   7633   7635 1
  7636   7633   7637 1
  7637   7635   7636 1
  7638   7637   7638 1
  7639   7637   7639 1
  7640   7637   7646 1
  7641   7639   7640 1
  7642   7639   7641 1
  7643   7639   7645 1
  7644   7641   7642 1
  7645   7641   7643 1
  7646   7641   7644 1
  7647   7647   7648 1
  7648   7647   7649 1
  7649   7647   7662 1
  7650   7649   7650 1
  7651   7650   7651 1
  7652   7650   7652 1
  7653   7650   7656 1
  7654   7652   7653 1
  7655   7652   7654 1
  7656   7652   7655 1
  7657   7656   7657 1
  7658   7656   7658 1
  7659   7656   7666 1
  7660   7658   7659 1
  7661   7658   7660 1
  7662   7658   7662 1
  7663   7660   7661 1
  7664   7662   7663 1
  7665   7662   7664 1
  7666   7664   7665 1
  7667   7667   7668 1
  7668   7667   7669 1
  7669   7667   7685 1
  7670   7669   7670 1
  7671   7669   7671 1
  7672   7669   7673 1
  7673   7671   7672 1
  7674   7673   7674 1
  7675   7673   7675 1
  7676   7673   7677 1
  7677   7675   7676 1
  7678   7677   7678 1
  7679   7677   7679 1
  7680   7677   7686 1
  7681   7679   7680 1
  7682   7679   7681 1
  7683   7679   7685 1
  7684   7681   7682 1
  7685   7681   7683 1
  7686   7681   7684 1
  7687   7687   7688 1
  7688   7687   7689 1
  7689   7687   7702 1
  7690   7689   7690 1
  7691   7690   7691 1
  7692   7690   7692 1
  7693   7690   7696 1
  7694   7692   7693 1
  7695   7692   7694 1
  7696   7692   7695 1
  7697   7696   7697 1
  7698   7696   7698 1
  7699   7696   7706 1
  7700   7698   7699 1
  7701   7698   7700 1
  7702   7698   7702 1
  7703   7700   7701 1
  7704   7702   7703 1
  7705   7702   7704 1
  7706   7704   7705 1
  7707   7707   7708 1
  7708   7707   7709 1
  7709   7707   7725 1
  7710   7709   7710 1
  7711   7709   7711 1
  7712   7709   7713 1
  7713   7711   7712 1
  7714   7713   7714 1
  7715   7713   7715 1
  7716   7713   7717 1
  7717   7715   7716 1
  7718   7717   7718 1
  7719   7717   7719 1
  7720   7717   7726 1
  7721   7719   7720 1
  7722   7719   7721 1
  7723   7719   7725 1
  7724   7721   7722 1
  7725   7721   7723 1
  7726   7721   7724 1
  7727   7727   7728 1
  7728   7727   7729 1
  7729   7727   7742 1
  7730   7729   7730 1
  7731   7730   7731 1
  7732   7730   7732 1
  7733   7730   7736 1
  7734   7732   7733 1
  7735   7732   7734 1
  7736   7732   7735 1
  7737   7736   7737 1
  7738   7736   7738 1
  7739   7736   7746 1
  7740   7738   7739 1
  7741   7738   7740 1
  7742   7738   7742 1
  7743   7740   7741 1
  7744   7742   7743 1
  7745   7742   7744 1
  7746   7744   7745 1
  7747   7747   7748 1
  7748   7747   7749 1
  7749   7747   7765 1
  7750   7749   7750 1
  7751   7749   7751 1
  7752   7749   7753 1
  7753   7751   7752 1
  7754   7753   7754 1
  7755   7753   7755 1
  7756   7753   7757 1
  7757   7755   7756 1
  7758   7757   7758 1
  7759   7757   7759 1
  7760   7757   7766 1
  7761   7759   7760 1
  7762   7759   7761 1
  7763   7759   7765 1
  7764   7761   7762 1
  7765   7761   7763 1
  7766   7761   7764 1
  7767   7767   7768 1
  7768   7767   7769 1
  7769   7767   7782 1
  7770   7769   7770 1
  7771   7770   7771 1
  7772   7770   7772 1
  7773   7770   7776 1
  7774   7772   7773 1
  7775   7772   7774 1
  7776   7772   7775 1
  7777   7776   7777 1
  7778   7776   7778 1
  7779   7776   7786 1
  7780   7778   7779 1
  7781   7778   7780 1
  7782   7778   7782 1
  7783   7780   7781 1
  7784   7782   7783 1
  7785   7782   7784 1
  7786   7784   7785 1
  7787   7787   7788 1
  7788   7787   7789 1
  7789   7787   7805 1
  7790   7789   7790 1
  7791   7789   7791 1
  7792   7789   7793 1
  7793   7791   7792 1
  7794   7793   7794 1
  7795   7793   7795 1
  7796   7793   7797 1
  7797   7795   7796 1
  7798   7797   7798 1
  7799   7797   7799 1
  7800   7797   7806 1
  7801   7799   7800 1
  7802   7799   7801 1
  7803   7799   7805 1
  7804   7801   7802 1
  7805   7801   7803 1
  7806   7801   7804 1
  7807   7807   7808 1
  7808   7807   7809 1
  7809   7807   7822 1
  7810   7809   7810 1
  7811   7810   7811 1
  7812   7810   7812 1
  7813   7810   7816 1
  7814   7812   7813 1
  7815   7812   7814 1
  7816   7812   7815 1
  7817   7816   7817 1
  7818   7816   7818 1
  7819   7816   7826 1
  7820   7818   7819 1
  7821   7818   7820 1
  7822   7818   7822 1
  7823   7820   7821 1
  7824   7822   7823 1
  7825   7822   7824 1
  7826   7824   7825 1
  7827   7827   7828 1
  7828   7827   7829 1
  7829   7827   7845 1
  7830   7829   7830 1
  7831   7829   7831 1
  7832   7829   7833 1
  7833   7831   7832 1
  7834   7833   7834 1
  7835   7833   7835 1
  7836   7833   7837 1
  7837   7835   7836 1
  7838   7837   7838 1
  7839   7837   7839 1
  7840   7837   7846 1
  7841   7839   7840 1
  7842   7839   7841 1
  7843   7839   7845 1
  7844   7841   7842 1
  7845   7841   7843 1
  7846   7841   7844 1
  7847   7847   7848 1
  7848   7847   7849 1
  7849   7847   7862 1
  7850   7849   7850 1
  7851   7850   7851 1
  7852   7850   7852 1
  7853   7850   7856 1
  7854   7852   7853 1
  7855   7852   7854 1
  7856   7852   7855 1
  7857   7856   7857 1
  7858   7856   7858 1
  7859   7856   7872 1
  7860   7858   7859 1
  7861   7858   7860 1
  7862   7858   7862 1
  7863   7860   7861 1
  7864   7862   7863 1
  7865   7862   7864 1
  7866   7864   7865 1
  7867   7864   7866 1
  7868   7866   7867 1
  7869   7866   7868 1
  7870   7868   7869 1
  7871   7868   7870 1
  7872   7868   7871 1
  7873   7873   7874 1
  7874   7873   7875 1
  7875   7873   7897 1
  7876   7875   7876 1
  7877   7875   7877 1
  7878   7875   7885 1
  7879   7877   7878 1
  7880   7877   7879 1
  7881   7879   7880 1
  7882   7879   7884 1
  7883   7880   7881 1
  7884   7880   7882 1
  7885   7880   7883 1
  7886   7885   7886 1
  7887   7885   7887 1
  7888   7885   7889 1
  7889   7887   7888 1
  7890   7889   7890 1
  7891   7889   7891 1
  7892   7889   7898 1
  7893   7891   7892 1
  7894   7891   7893 1
  7895   7891   7897 1
  7896   7893   7894 1
  7897   7893   7895 1
  7898   7893   7896 1
  7899   7899   7900 1
  7900   7899   7901 1
  7901   7899   7914 1
  7902   7901   7902 1
  7903   7902   7903 1
  7904   7902   7904 1
  7905   7902   7908 1
  7906   7904   7905 1
  7907   7904   7906 1
  7908   7904   7907 1
  7909   7908   7909 1
  7910   7908   7910 1
  7911   7908   7924 1
  7912   7910   7911 1
  7913   7910   7912 1
  7914   7910   7914 1
  7915   7912   7913 1
  7916   7914   7915 1
  7917   7914   7916 1
  7918   7916   7917 1
  7919   7916   7918 1
  7920   7918   7919 1
  7921   7918   7920 1
  7922   7920   7921 1
  7923   7920   7922 1
  7924   7920   7923 1
  7925   7925   7926 1
  7926   7925   7927 1
  7927   7925   7949 1
  7928   7927   7928 1
  7929   7927   7929 1
  7930   7927   7937 1
  7931   7929   7930 1
  7932   7929   7931 1
  7933   7931   7932 1
  7934   7931   7936 1
  7935   7932   7933 1
  7936   7932   7934 1
  7937   7932   7935 1
  7938   7937   7938 1
  7939   7937   7939 1
  7940   7937   7941 1
  7941   7939   7940 1
  7942   7941   7942 1
  7943   7941   7943 1
  7944   7941   7950 1
  7945   7943   7944 1
  7946   7943   7945 1
  7947   7943   7949 1
  7948   7945   7946 1
  7949   7945   7947 1
  7950   7945   7948 1
  7951   7951   7952 1
  7952   7951   7953 1
  7953   7951   7966 1
  7954   7953   7954 1
  7955   7954   7955 1
  7956   7954   7956 1
  7957   7954   7960 1
  7958   7956   7957 1
  7959   7956   7958 1
  7960   7956   7959 1
  7961   7960   7961 1
  7962   7960   7962 1
  7963   7960   7976 1
  7964   7962   7963 1
  7965   7962   7964 1
  7966   7962   7966 1
  7967   7964   7965 1
  7968   7966   7967 1
  7969   7966   7968 1
  7970   7968   7969 1
  7971   7968   7970 1
  7972   7970   7971 1
  7973   7970   7972 1
  7974   7972   7973 1
  7975   7972   7974 1
  7976   7972   7975 1
  7977   7977   7978 1
  7978   7977   7979 1
  7979   7977   8001 1
  7980   7979   7980 1
  7981   7979   7981 1
  7982   7979   7989 1
  7983   7981   7982 1
  7984   7981   7983 1
  7985   7983   7984 1
  7986   7983   7988 1
  7987   7984   7985 1
  7988   7984   7986 1
  7989   7984   7987 1
  7990   7989   7990 1
  7991   7989   7991 1
  7992   7989   7993 1
  7993   7991   7992 1
  7994   7993   7994 1
  7995   7993   7995 1
  7996   7993   8002 1
  7997   7995   7996 1
  7998   7995   7997 1
  7999   7995   8001 1
  8000   7997   7998 1
  8001   7997   7999 1
  8002   7997   8000 1
  8003   8003   8004 1
  8004   8003   8005 1
  8005   8003   8018 1
  8006   8005   8006 1
  8007   8006   8007 1
  8008   8006   8008 1
  8009   8006   8012 1
  8010   8008   8009 1
  8011   8008   8010 1
  8012   8008   8011 1
  8013   8012   8013 1
  8014   8012   8014 1
  8015   8012   8016 1
  8016   8014   8015 1
  8017   8016   8017 1
  8018   8016   8018 1
  8019   8016   8022 1
  8020   8018   8019 1
  8021   8018   8020 1
  8022   8020   8021 1
  8023   8023   8024 1
  8024   8023   8025 1
  8025   8023   8039 1
  8026   8025   8026 1
  8027   8025   8027 1
  8028   8025   8029 1
  8029   8027   8028 1
  8030   8029   8030 1
  8031   8029   8031 1
  8032   8029   8042 1
  8033   8031   8032 1
  8034   8031   8033 1
  8035   8031   8040 1
  8036   8033   8034 1
  8037   8033   8035 1
  8038   8033   8039 1
  8039   8035   8036 1
  8040   8035   8037 1
  8041   8035   8038 1
  8042   8040   8041 1
  8043   8043   8044 1
  8044   8043   8045 1
  8045   8043   8058 1
  8046   8045   8046 1
  8047   8046   8047 1
  8048   8046   8048 1
  8049   8046   8052 1
  8050   8048   8049 1
  8051   8048   8050 1
  8052   8048   8051 1
  8053   8052   8053 1
  8054   8052   8054 1
  8055   8052   8056 1
  8056   8054   8055 1
  8057   8056   8057 1
  8058   8056   8058 1
  8059   8056   8062 1
  8060   8058   8059 1
  8061   8058   8060 1
  8062   8060   8061 1
  8063   8063   8064 1
  8064   8063   8065 1
  8065   8063   8079 1
  8066   8065   8066 1
  8067   8065   8067 1
  8068   8065   8069 1
  8069   8067   8068 1
  8070   8069   8070 1
  8071   8069   8071 1
  8072   8069   8082 1
  8073   8071   8072 1
  8074   8071   8073 1
  8075   8071   8080 1
  8076   8073   8074 1
  8077   8073   8075 1
  8078   8073   8079 1
  8079   8075   8076 1
  8080   8075   8077 1
  8081   8075   8078 1
  8082   8080   8081 1
  8083   8083   8084 1
  8084   8083   8085 1
  8085   8083   8098 1
  8086   8085   8086 1
  8087   8086   8087 1
  8088   8086   8088 1
  8089   8086   8092 1
  8090   8088   8089 1
  8091   8088   8090 1
  8092   8088   8091 1
  8093   8092   8093 1
  8094   8092   8094 1
  8095   8092   8096 1
  8096   8094   8095 1
  8097   8096   8097 1
  8098   8096   8098 1
  8099   8096   8102 1
  8100   8098   8099 1
  8101   8098   8100 1
  8102   8100   8101 1
  8103   8103   8104 1
  8104   8103   8105 1
  8105   8103   8119 1
  8106   8105   8106 1
  8107   8105   8107 1
  8108   8105   8109 1
  8109   8107   8108 1
  8110   8109   8110 1
  8111   8109   8111 1
  8112   8109   8122 1
  8113   8111   8112 1
  8114   8111   8113 1
  8115   8111   8120 1
  8116   8113   8114 1
  8117   8113   8115 1
  8118   8113   8119 1
  8119   8115   8116 1
  8120   8115   8117 1
  8121   8115   8118 1
  8122   8120   8121 1
  8123   8123   8124 1
  8124   8123   8125 1
  8125   8123   8138 1
  8126   8125   8126 1
  8127   8126   8127 1
  8128   8126   8128 1
  8129   8126   8132 1
  8130   8128   8129 1
  8131   8128   8130 1
  8132   8128   8131 1
  8133   8132   8133 1
  8134   8132   8134 1
  8135   8132   8136 1
  8136   8134   8135 1
  8137   8136   8137 1
  8138   8136   8138 1
  8139   8136   8142 1
  8140   8138   8139 1
  8141   8138   8140 1
  8142   8140   8141 1
  8143   8143   8144 1
  8144   8143   8145 1
  8145   8143   8159 1
  8146   8145   8146 1
  8147   8145   8147 1
  8148   8145   8149 1
  8149   8147   8148 1
  8150   8149   8150 1
  8151   8149   8151 1
  8152   8149   8162 1
  8153   8151   8152 1
  8154   8151   8153 1
  8155   8151   8160 1
  8156   8153   8154 1
  8157   8153   8155 1
  8158   8153   8159 1
  8159   8155   8156 1
  8160   8155   8157 1
  8161   8155   8158 1
  8162   8160   8161 1
  8163   8163   8164 1
  8164   8163   8165 1
  8165   8163   8178 1
  8166   8165   8166 1
  8167   8166   8167 1
  8168   8166   8168 1
  8169   8166   8172 1
  8170   8168   8169 1
  8171   8168   8170 1
  8172   8168   8171 1
  8173   8172   8173 1
  8174   8172   8174 1
  8175   8172   8176 1
  8176   8174   8175 1
  8177   8176   8177 1
  8178   8176   8178 1
  8179   8176   8182 1
  8180   8178   8179 1
  8181   8178   8180 1
  8182   8180   8181 1
  8183   8183   8184 1
  8184   8183   8185 1
  8185   8183   8199 1
  8186   8185   8186 1
  8187   8185   8187 1
  8188   8185   8189 1
  8189   8187   8188 1
  8190   8189   8190 1
  8191   8189   8191 1
  8192   8189   8202 1
  8193   8191   8192 1
  8194   8191   8193 1
  8195   8191   8200 1
  8196   8193   8194 1
  8197   8193   8195 1
  8198   8193   8199 1
  8199   8195   8196 1
  8200   8195   8197 1
  8201   8195   8198 1
  8202   8200   8201 1
  8203   8203   8204 1
  8204   8203   8205 1
  8205   8203   8218 1
  8206   8205   8206 1
  8207   8206   8207 1
  8208   8206   8208 1
  8209   8206   8212 1
  8210   8208   8209 1
  8211   8208   8210 1
  8212   8208   8211 1
  8213   8212   8213 1
  8214   8212   8214 1
  8215   8212   8216 1
  8216   8214   8215 1
  8217   8216   8217 1
  8218   8216   8218 1
  8219   8216   8222 1
  8220   8218   8219 1
  8221   8218   8220 1
  8222   8220   8221 1
  8223   8223   8224 1
  8224   8223   8225 1
  8225   8223   8239 1
  8226   8225   8226 1
  8227   8225   8227 1
  8228   8225   8229 1
  8229   8227   8228 1
  8230   8229   8230 1
  8231   8229   8231 1
  8232   8229   8242 1
  8233   8231   8232 1
  8234   8231   8233 1
  8235   8231   8240 1
  8236   8233   8234 1
  8237   8233   8235 1
  8238   8233   8239 1
  8239   8235   8236 1
  8240   8235   8237 1
  8241   8235   8238 1
  8242   8240   8241 1
  8243   8243   8244 1
  8244   8243   8245 1
  8245   8243   8258 1
  8246   8245   8246 1
  8247   8246   8247 1
  8248   8246   8248 1
  8249   8246   8252 1
  8250   8248   8249 1
  8251   8248   8250 1
  8252   8248   8251 1
  8253   8252   8253 1
  8254   8252   8254 1
  8255   8252   8256 1
  8256   8254   8255 1
  8257   8256   8257 1
  8258   8256   8258 1
  8259   8256   8262 1
  8260   8258   8259 1
  8261   8258   8260 1
  8262   8260   8261 1
  8263   8263   8264 1
  8264   8263   8265 1
  8265   8263   8279 1
  8266   8265   8266 1
  8267   8265   8267 1
  8268   8265   8269 1
  8269   8267   8268 1
  8270   8269   8270 1
  8271   8269   8271 1
  8272   8269   8282 1
  8273   8271   8272 1
  8274   8271   8273 1
  8275   8271   8280 1
  8276   8273   8274 1
  8277   8273   8275 1
  8278   8273   8279 1
  8279   8275   8276 1
  8280   8275   8277 1
  8281   8275   8278 1
  8282   8280   8281 1
  8283   8283   8284 1
  8284   8283   8285 1
  8285   8283   8298 1
  8286   8285   8286 1
  8287   8286   8287 1
  8288   8286   8288 1
  8289   8286   8292 1
  8290   8288   8289 1
  8291   8288   8290 1
  8292   8288   8291 1
  8293   8292   8293 1
  8294   8292   8294 1
  8295   8292   8296 1
  8296   8294   8295 1
  8297   8296   8297 1
  8298   8296   8298 1
  8299   8296   8308 1
  8300   8298   8299 1
  8301   8298   8300 1
  8302   8300   8301 1
  8303   8300   8302 1
  8304   8302   8303 1
  8305   8302   8304 1
  8306   8304   8305 1
  8307   8304   8306 1
  8308   8304   8307 1
  8309   8309   8310 1
  8310   8309   8311 1
  8311   8309   8331 1
  8312   8311   8312 1
  8313   8311   8313 1
  8314   8311   8321 1
  8315   8313   8314 1
  8316   8313   8315 1
  8317   8315   8316 1
  8318   8315   8320 1
  8319   8316   8317 1
  8320   8316   8318 1
  8321   8316   8319 1
  8322   8321   8322 1
  8323   8321   8323 1
  8324   8321   8334 1
  8325   8323   8324 1
  8326   8323   8325 1
  8327   8323   8332 1
  8328   8325   8326 1
  8329   8325   8327 1
  8330   8325   8331 1
  8331   8327   8328 1
  8332   8327   8329 1
  8333   8327   8330 1
  8334   8332   8333 1
  8335   8335   8336 1
  8336   8335   8337 1
  8337   8335   8350 1
  8338   8337   8338 1
  8339   8338   8339 1
  8340   8338   8340 1
  8341   8338   8344 1
  8342   8340   8341 1
  8343   8340   8342 1
  8344   8340   8343 1
  8345   8344   8345 1
  8346   8344   8346 1
  8347   8344   8348 1
  8348   8346   8347 1
  8349   8348   8349 1
  8350   8348   8350 1
  8351   8348   8360 1
  8352   8350   8351 1
  8353   8350   8352 1
  8354   8352   8353 1
  8355   8352   8354 1
  8356   8354   8355 1
  8357   8354   8356 1
  8358   8356   8357 1
  8359   8356   8358 1
  8360   8356   8359 1
  8361   8361   8362 1
  8362   8361   8363 1
  8363   8361   8383 1
  8364   8363   8364 1
  8365   8363   8365 1
  8366   8363   8373 1
  8367   8365   8366 1
  8368   8365   8367 1
  8369   8367   8368 1
  8370   8367   8372 1
  8371   8368   8369 1
  8372   8368   8370 1
  8373   8368   8371 1
  8374   8373   8374 1
  8375   8373   8375 1
  8376   8373   8386 1
  8377   8375   8376 1
  8378   8375   8377 1
  8379   8375   8384 1
  8380   8377   8378 1
  8381   8377   8379 1
  8382   8377   8383 1
  8383   8379   8380 1
  8384   8379   8381 1
  8385   8379   8382 1
  8386   8384   8385 1
  8387   8387   8388 1
  8388   8387   8389 1
  8389   8387   8402 1
  8390   8389   8390 1
  8391   8390   8391 1
  8392   8390   8392 1
  8393   8390   8396 1
  8394   8392   8393 1
  8395   8392   8394 1
  8396   8392   8395 1
  8397   8396   8397 1
  8398   8396   8398 1
  8399   8396   8400 1
  8400   8398   8399 1
  8401   8400   8401 1
  8402   8400   8402 1
  8403   8400   8412 1
  8404   8402   8403 1
  8405   8402   8404 1
  8406   8404   8405 1
  8407   8404   8406 1
  8408   8406   8407 1
  8409   8406   8408 1
  8410   8408   8409 1
  8411   8408   8410 1
  8412   8408   8411 1
  8413   8413   8414 1
  8414   8413   8415 1
  8415   8413   8435 1
  8416   8415   8416 1
  8417   8415   8417 1
  8418   8415   8425 1
  8419   8417   8418 1
  8420   8417   8419 1
  8421   8419   8420 1
  8422   8419   8424 1
  8423   8420   8421 1
  8424   8420   8422 1
  8425   8420   8423 1
  8426   8425   8426 1
  8427   8425   8427 1
  8428   8425   8438 1
  8429   8427   8428 1
  8430   8427   8429 1
  8431   8427   8436 1
  8432   8429   8430 1
  8433   8429   8431 1
  8434   8429   8435 1
  8435   8431   8432 1
  8436   8431   8433 1
  8437   8431   8434 1
  8438   8436   8437 1
  8439   8439   8440 1
  8440   8439   8441 1
  8441   8439   8450 1
  8442   8441   8442 1
  8443   8442   8443 1
  8444   8442   8444 1
  8445   8442   8445 1
  8446   8445   8446 1
  8447   8445   8447 1
  8448   8445   8448 1
  8449   8448   8449 1
  8450   8448   8450 1
  8451   8448   8454 1
  8452   8450   8451 1
  8453   8450   8452 1
  8454   8452   8453 1
  8455   8455   8456 1
  8456   8455   8457 1
  8457   8455   8468 1
  8458   8457   8458 1
  8459   8457   8459 1
  8460   8457   8461 1
  8461   8459   8460 1
  8462   8461   8462 1
  8463   8461   8463 1
  8464   8461   8470 1
  8465   8463   8464 1
  8466   8463   8465 1
  8467   8463   8469 1
  8468   8465   8466 1
  8469   8465   8467 1
  8470   8465   8468 1
  8471   8471   8472 1
  8472   8471   8477 1
  8473   8471   8488 1
  8474   8472   8473 1
  8475   8472   8474 1
  8476   8472   8475 1
  8477   8475   8476 1
  8478   8477   8478 1
  8479   8478   8479 1
  8480   8478   8480 1
  8481   8478   8481 1
  8482   8481   8482 1
  8483   8481   8483 1
  8484   8481   8485 1
  8485   8483   8484 1
  8486   8485   8486 1
  8487   8485   8487 1
  8488   8485   8488 1
  8489   8488   8489 1
  8490   8488   8490 1
  8491   8491   8492 1
  8492   8491   8497 1
  8493   8491   8506 1
  8494   8492   8493 1
  8495   8492   8494 1
  8496   8492   8495 1
  8497   8495   8496 1
  8498   8497   8498 1
  8499   8497   8499 1
  8500   8497   8510 1
  8501   8499   8500 1
  8502   8499   8501 1
  8503   8499   8509 1
  8504   8501   8502 1
  8505   8501   8503 1
  8506   8501   8507 1
  8507   8503   8504 1
  8508   8503   8505 1
  8509   8503   8506 1
  8510   8507   8508 1
  8511   8511   8512 1
  8512   8511   8517 1
  8513   8511   8528 1
  8514   8512   8513 1
  8515   8512   8514 1
  8516   8512   8515 1
  8517   8515   8516 1
  8518   8517   8518 1
  8519   8518   8519 1
  8520   8518   8520 1
  8521   8518   8521 1
  8522   8521   8522 1
  8523   8521   8523 1
  8524   8521   8525 1
  8525   8523   8524 1
  8526   8525   8526 1
  8527   8525   8527 1
  8528   8525   8528 1
  8529   8528   8529 1
  8530   8528   8530 1
  8531   8531   8532 1
  8532   8531   8537 1
  8533   8531   8546 1
  8534   8532   8533 1
  8535   8532   8534 1
  8536   8532   8535 1
  8537   8535   8536 1
  8538   8537   8538 1
  8539   8537   8539 1
  8540   8537   8550 1
  8541   8539   8540 1
  8542   8539   8541 1
  8543   8539   8549 1
  8544   8541   8542 1
  8545   8541   8543 1
  8546   8541   8547 1
  8547   8543   8544 1
  8548   8543   8545 1
  8549   8543   8546 1
  8550   8547   8548 1
  8551   8551   8552 1
  8552   8551   8553 1
  8553   8551   8562 1
  8554   8553   8554 1
  8555   8554   8555 1
  8556   8554   8556 1
  8557   8554   8557 1
  8558   8557   8558 1
  8559   8557   8559 1
  8560   8557   8560 1
  8561   8560   8561 1
  8562   8560   8562 1
  8563   8560   8566 1
  8564   8562   8563 1
  8565   8562   8564 1
  8566   8564   8565 1
  8567   8567   8568 1
  8568   8567   8569 1
  8569   8567   8580 1
  8570   8569   8570 1
  8571   8569   8571 1
  8572   8569   8573 1
  8573   8571   8572 1
  8574   8573   8574 1
  8575   8573   8575 1
  8576   8573   8582 1
  8577   8575   8576 1
  8578   8575   8577 1
  8579   8575   8581 1
  8580   8577   8578 1
  8581   8577   8579 1
  8582   8577   8580 1
  8583   8583   8584 1
  8584   8583   8585 1
  8585   8583   8598 1
  8586   8585   8586 1
  8587   8586   8587 1
  8588   8586   8588 1
  8589   8586   8593 1
  8590   8588   8589 1
  8591   8588   8590 1
  8592   8588   8591 1
  8593   8591   8592 1
  8594   8593   8594 1
  8595   8593   8595 1
  8596   8593   8596 1
  8597   8596   8597 1
  8598   8596   8598 1
  8599   8596   8602 1
  8600   8598   8599 1
  8601   8598   8600 1
  8602   8600   8601 1
  8603   8603   8604 1
  8604   8603   8605 1
  8605   8603   8620 1
  8606   8605   8606 1
  8607   8605   8607 1
  8608   8605   8609 1
  8609   8607   8608 1
  8610   8609   8610 1
  8611   8609   8611 1
  8612   8609   8622 1
  8613   8611   8612 1
  8614   8611   8613 1
  8615   8611   8621 1
  8616   8613   8614 1
  8617   8613   8615 1
  8618   8613   8620 1
  8619   8615   8616 1
  8620   8615   8617 1
  8621   8615   8618 1
  8622   8618   8619 1
  8623   8623   8624 1
  8624   8623   8625 1
  8625   8623   8637 1
  8626   8625   8626 1
  8627   8626   8627 1
  8628   8626   8628 1
  8629   8626   8632 1
  8630   8628   8629 1
  8631   8628   8630 1
  8632   8628   8631 1
  8633   8632   8633 1
  8634   8632   8634 1
  8635   8632   8635 1
  8636   8635   8636 1
  8637   8635   8637 1
  8638   8635   8641 1
  8639   8637   8638 1
  8640   8637   8639 1
  8641   8639   8640 1
  8642   8642   8643 1
  8643   8642   8644 1
  8644   8642   8658 1
  8645   8644   8645 1
  8646   8644   8646 1
  8647   8644   8648 1
  8648   8646   8647 1
  8649   8648   8649 1
  8650   8648   8650 1
  8651   8648   8660 1
  8652   8650   8651 1
  8653   8650   8652 1
  8654   8650   8659 1
  8655   8652   8653 1
  8656   8652   8654 1
  8657   8652   8658 1
  8658   8654   8655 1
  8659   8654   8656 1
  8660   8654   8657 1
  8661   8661   8662 1
  8662   8661   8663 1
  8663   8661   8676 1
  8664   8663   8664 1
  8665   8664   8665 1
  8666   8664   8666 1
  8667   8664   8671 1
  8668   8666   8667 1
  8669   8666   8668 1
  8670   8666   8669 1
  8671   8669   8670 1
  8672   8671   8672 1
  8673   8671   8673 1
  8674   8671   8674 1
  8675   8674   8675 1
  8676   8674   8676 1
  8677   8674   8680 1
  8678   8676   8677 1
  8679   8676   8678 1
  8680   8678   8679 1
  8681   8681   8682 1
  8682   8681   8683 1
  8683   8681   8698 1
  8684   8683   8684 1
  8685   8683   8685 1
  8686   8683   8687 1
  8687   8685   8686 1
  8688   8687   8688 1
  8689   8687   8689 1
  8690   8687   8700 1
  8691   8689   8690 1
  8692   8689   8691 1
  8693   8689   8699 1
  8694   8691   8692 1
  8695   8691   8693 1
  8696   8691   8698 1
  8697   8693   8694 1
  8698   8693   8695 1
  8699   8693   8696 1
  8700   8696   8697 1
  8701   8701   8702 1
  8702   8701   8703 1
  8703   8701   8715 1
  8704   8703   8704 1
  8705   8704   8705 1
  8706   8704   8706 1
  8707   8704   8710 1
  8708   8706   8707 1
  8709   8706   8708 1
  8710   8706   8709 1
  8711   8710   8711 1
  8712   8710   8712 1
  8713   8710   8713 1
  8714   8713   8714 1
  8715   8713   8715 1
  8716   8713   8719 1
  8717   8715   8716 1
  8718   8715   8717 1
  8719   8717   8718 1
  8720   8720   8721 1
  8721   8720   8722 1
  8722   8720   8736 1
  8723   8722   8723 1
  8724   8722   8724 1
  8725   8722   8726 1
  8726   8724   8725 1
  8727   8726   8727 1
  8728   8726   8728 1
  8729   8726   8738 1
  8730   8728   8729 1
  8731   8728   8730 1
  8732   8728   8737 1
  8733   8730   8731 1
  8734   8730   8732 1
  8735   8730   8736 1
  8736   8732   8733 1
  8737   8732   8734 1
  8738   8732   8735 1
  8739   8739   8740 1
  8740   8739   8745 1
  8741   8739   8756 1
  8742   8740   8741 1
  8743   8740   8742 1
  8744   8740   8743 1
  8745   8743   8744 1
  8746   8745   8746 1
  8747   8746   8747 1
  8748   8746   8748 1
  8749   8746   8749 1
  8750   8749   8750 1
  8751   8749   8751 1
  8752   8749   8753 1
  8753   8751   8752 1
  8754   8753   8754 1
  8755   8753   8755 1
  8756   8753   8756 1
  8757   8756   8757 1
  8758   8756   8758 1
  8759   8759   8760 1
  8760   8759   8765 1
  8761   8759   8774 1
  8762   8760   8761 1
  8763   8760   8762 1
  8764   8760   8763 1
  8765   8763   8764 1
  8766   8765   8766 1
  8767   8765   8767 1
  8768   8765   8778 1
  8769   8767   8768 1
  8770   8767   8769 1
  8771   8767   8777 1
  8772   8769   8770 1
  8773   8769   8771 1
  8774   8769   8775 1
  8775   8771   8772 1
  8776   8771   8773 1
  8777   8771   8774 1
  8778   8775   8776 1
  8779   8779   8780 1
  8780   8779   8781 1
  8781   8779   8794 1
  8782   8781   8782 1
  8783   8782   8783 1
  8784   8782   8784 1
  8785   8782   8789 1
  8786   8784   8785 1
  8787   8784   8786 1
  8788   8784   8787 1
  8789   8787   8788 1
  8790   8789   8790 1
  8791   8789   8791 1
  8792   8789   8792 1
  8793   8792   8793 1
  8794   8792   8794 1
  8795   8792   8798 1
  8796   8794   8795 1
  8797   8794   8796 1
  8798   8796   8797 1
  8799   8799   8800 1
  8800   8799   8801 1
  8801   8799   8816 1
  8802   8801   8802 1
  8803   8801   8803 1
  8804   8801   8805 1
  8805   8803   8804 1
  8806   8805   8806 1
  8807   8805   8807 1
  8808   8805   8818 1
  8809   8807   8808 1
  8810   8807   8809 1
  8811   8807   8817 1
  8812   8809   8810 1
  8813   8809   8811 1
  8814   8809   8816 1
  8815   8811   8812 1
  8816   8811   8813 1
  8817   8811   8814 1
  8818   8814   8815 1
  8819   8819   8820 1
  8820   8819   8821 1
  8821   8819   8834 1
  8822   8821   8822 1
  8823   8822   8823 1
  8824   8822   8824 1
  8825   8822   8829 1
  8826   8824   8825 1
  8827   8824   8826 1
  8828   8824   8827 1
  8829   8827   8828 1
  8830   8829   8830 1
  8831   8829   8831 1
  8832   8829   8832 1
  8833   8832   8833 1
  8834   8832   8834 1
  8835   8832   8838 1
  8836   8834   8835 1
  8837   8834   8836 1
  8838   8836   8837 1
  8839   8839   8840 1
  8840   8839   8841 1
  8841   8839   8856 1
  8842   8841   8842 1
  8843   8841   8843 1
  8844   8841   8845 1
  8845   8843   8844 1
  8846   8845   8846 1
  8847   8845   8847 1
  8848   8845   8858 1
  8849   8847   8848 1
  8850   8847   8849 1
  8851   8847   8857 1
  8852   8849   8850 1
  8853   8849   8851 1
  8854   8849   8856 1
  8855   8851   8852 1
  8856   8851   8853 1
  8857   8851   8854 1
  8858   8854   8855 1
  8859   8859   8860 1
  8860   8859   8861 1
  8861   8859   8874 1
  8862   8861   8862 1
  8863   8862   8863 1
  8864   8862   8864 1
  8865   8862   8869 1
  8866   8864   8865 1
  8867   8864   8866 1
  8868   8864   8867 1
  8869   8867   8868 1
  8870   8869   8870 1
  8871   8869   8871 1
  8872   8869   8872 1
  8873   8872   8873 1
  8874   8872   8874 1
  8875   8872   8878 1
  8876   8874   8875 1
  8877   8874   8876 1
  8878   8876   8877 1
  8879   8879   8880 1
  8880   8879   8881 1
  8881   8879   8896 1
  8882   8881   8882 1
  8883   8881   8883 1
  8884   8881   8885 1
  8885   8883   8884 1
  8886   8885   8886 1
  8887   8885   8887 1
  8888   8885   8898 1
  8889   8887   8888 1
  8890   8887   8889 1
  8891   8887   8897 1
  8892   8889   8890 1
  8893   8889   8891 1
  8894   8889   8896 1
  8895   8891   8892 1
  8896   8891   8893 1
  8897   8891   8894 1
  8898   8894   8895 1
  8899   8899   8900 1
  8900   8899   8901 1
  8901   8899   8914 1
  8902   8901   8902 1
  8903   8902   8903 1
  8904   8902   8904 1
  8905   8902   8909 1
  8906   8904   8905 1
  8907   8904   8906 1
  8908   8904   8907 1
  8909   8907   8908 1
  8910   8909   8910 1
  8911   8909   8911 1
  8912   8909   8912 1
  8913   8912   8913 1
  8914   8912   8914 1
  8915   8912   8918 1
  8916   8914   8915 1
  8917   8914   8916 1
  8918   8916   8917 1
  8919   8919   8920 1
  8920   8919   8921 1
  8921   8919   8936 1
  8922   8921   8922 1
  8923   8921   8923 1
  8924   8921   8925 1
  8925   8923   8924 1
  8926   8925   8926 1
  8927   8925   8927 1
  8928   8925   8938 1
  8929   8927   8928 1
  8930   8927   8929 1
  8931   8927   8937 1
  8932   8929   8930 1
  8933   8929   8931 1
  8934   8929   8936 1
  8935   8931   8932 1
  8936   8931   8933 1
  8937   8931   8934 1
  8938   8934   8935 1
  8939   8939   8940 1
  8940   8939   8941 1
  8941   8939   8952 1
  8942   8941   8942 1
  8943   8942   8943 1
  8944   8942   8944 1
  8945   8942   8947 1
  8946   8944   8945 1
  8947   8944   8946 1
  8948   8947   8948 1
  8949   8947   8949 1
  8950   8947   8950 1
  8951   8950   8951 1
  8952   8950   8952 1
  8953   8950   8956 1
  8954   8952   8953 1
  8955   8952   8954 1
  8956   8954   8955 1
  8957   8957   8958 1
  8958   8957   8959 1
  8959   8957   8972 1
  8960   8959   8960 1
  8961   8959   8961 1
  8962   8959   8963 1
  8963   8961   8962 1
  8964   8963   8964 1
  8965   8963   8965 1
  8966   8963   8974 1
  8967   8965   8966 1
  8968   8965   8967 1
  8969   8965   8973 1
  8970   8967   8968 1
  8971   8967   8969 1
  8972   8967   8972 1
  8973   8969   8970 1
  8974   8969   8971 1
  8975   8975   8976 1
  8976   8975   8981 1
  8977   8975   8992 1
  8978   8976   8977 1
  8979   8976   8978 1
  8980   8976   8979 1
  8981   8979   8980 1
  8982   8981   8982 1
  8983   8982   8983 1
  8984   8982   8984 1
  8985   8982   8985 1
  8986   8985   8986 1
  8987   8985   8987 1
  8988   8985   8989 1
  8989   8987   8988 1
  8990   8989   8990 1
  8991   8989   8991 1
  8992   8989   8992 1
  8993   8992   8993 1
  8994   8992   8994 1
  8995   8995   8996 1
  8996   8995   9001 1
  8997   8995   9010 1
  8998   8996   8997 1
  8999   8996   8998 1
  9000   8996   8999 1
  9001   8999   9000 1
  9002   9001   9002 1
  9003   9001   9003 1
  9004   9001   9014 1
  9005   9003   9004 1
  9006   9003   9005 1
  9007   9003   9013 1
  9008   9005   9006 1
  9009   9005   9007 1
  9010   9005   9011 1
  9011   9007   9008 1
  9012   9007   9009 1
  9013   9007   9010 1
  9014   9011   9012 1
  9015   9015   9016 1
  9016   9015   9017 1
  9017   9015   9029 1
  9018   9017   9018 1
  9019   9018   9019 1
  9020   9018   9020 1
  9021   9018   9024 1
  9022   9020   9021 1
  9023   9020   9022 1
  9024   9020   9023 1
  9025   9024   9025 1
  9026   9024   9026 1
  9027   9024   9027 1
  9028   9027   9028 1
  9029   9027   9029 1
  9030   9027   9033 1
  9031   9029   9030 1
  9032   9029   9031 1
  9033   9031   9032 1
  9034   9034   9035 1
  9035   9034   9036 1
  9036   9034   9050 1
  9037   9036   9037 1
  9038   9036   9038 1
  9039   9036   9040 1
  9040   9038   9039 1
  9041   9040   9041 1
  9042   9040   9042 1
  9043   9040   9052 1
  9044   9042   9043 1
  9045   9042   9044 1
  9046   9042   9051 1
  9047   9044   9045 1
  9048   9044   9046 1
  9049   9044   9050 1
  9050   9046   9047 1
  9051   9046   9048 1
  9052   9046   9049 1
  9053   9053   9054 1
  9054   9053   9055 1
  9055   9053   9064 1
  9056   9055   9056 1
  9057   9056   9057 1
  9058   9056   9058 1
  9059   9056   9059 1
  9060   9059   9060 1
  9061   9059   9061 1
  9062   9059   9062 1
  9063   9062   9063 1
  9064   9062   9064 1
  9065   9062   9068 1
  9066   9064   9065 1
  9067   9064   9066 1
  9068   9066   9067 1
  9069   9069   9070 1
  9070   9069   9071 1
  9071   9069   9082 1
  9072   9071   9072 1
  9073   9071   9073 1
  9074   9071   9075 1
  9075   9073   9074 1
  9076   9075   9076 1
  9077   9075   9077 1
  9078   9075   9084 1
  9079   9077   9078 1
  9080   9077   9079 1
  9081   9077   9083 1
  9082   9079   9080 1
  9083   9079   9081 1
  9084   9079   9082 1
  9085   9085   9086 1
  9086   9085   9087 1
  9087   9085   9100 1
  9088   9087   9088 1
  9089   9088   9089 1
  9090   9088   9090 1
  9091   9088   9095 1
  9092   9090   9091 1
  9093   9090   9092 1
  9094   9090   9093 1
  9095   9093   9094 1
  9096   9095   9096 1
  9097   9095   9097 1
  9098   9095   9098 1
  9099   9098   9099 1
  9100   9098   9100 1
  9101   9098   9104 1
  9102   9100   9101 1
  9103   9100   9102 1
  9104   9102   9103 1
  9105   9105   9106 1
  9106   9105   9107 1
  9107   9105   9122 1
  9108   9107   9108 1
  9109   9107   9109 1
  9110   9107   9111 1
  9111   9109   9110 1
  9112   9111   9112 1
  9113   9111   9113 1
  9114   9111   9124 1
  9115   9113   9114 1
  9116   9113   9115 1
  9117   9113   9123 1
  9118   9115   9116 1
  9119   9115   9117 1
  9120   9115   9122 1
  9121   9117   9118 1
  9122   9117   9119 1
  9123   9117   9120 1
  9124   9120   9121 1
  9125   9125   9126 1
  9126   9125   9127 1
  9127   9125   9138 1
  9128   9127   9128 1
  9129   9128   9129 1
  9130   9128   9130 1
  9131   9128   9133 1
  9132   9130   9131 1
  9133   9130   9132 1
  9134   9133   9134 1
  9135   9133   9135 1
  9136   9133   9136 1
  9137   9136   9137 1
  9138   9136   9138 1
  9139   9136   9142 1
  9140   9138   9139 1
  9141   9138   9140 1
  9142   9140   9141 1
  9143   9143   9144 1
  9144   9143   9145 1
  9145   9143   9158 1
  9146   9145   9146 1
  9147   9145   9147 1
  9148   9145   9149 1
  9149   9147   9148 1
  9150   9149   9150 1
  9151   9149   9151 1
  9152   9149   9160 1
  9153   9151   9152 1
  9154   9151   9153 1
  9155   9151   9159 1
  9156   9153   9154 1
  9157   9153   9155 1
  9158   9153   9158 1
  9159   9155   9156 1
  9160   9155   9157 1
  9161   9161   9162 1
  9162   9161   9163 1
  9163   9161   9176 1
  9164   9163   9164 1
  9165   9164   9165 1
  9166   9164   9166 1
  9167   9164   9171 1
  9168   9166   9167 1
  9169   9166   9168 1
  9170   9166   9169 1
  9171   9169   9170 1
  9172   9171   9172 1
  9173   9171   9173 1
  9174   9171   9174 1
  9175   9174   9175 1
  9176   9174   9176 1
  9177   9174   9186 1
  9178   9176   9177 1
  9179   9176   9178 1
  9180   9178   9179 1
  9181   9178   9180 1
  9182   9180   9181 1
  9183   9180   9182 1
  9184   9182   9183 1
  9185   9182   9184 1
  9186   9182   9185 1
  9187   9187   9188 1
  9188   9187   9189 1
  9189   9187   9210 1
  9190   9189   9190 1
  9191   9189   9191 1
  9192   9189   9199 1
  9193   9191   9192 1
  9194   9191   9193 1
  9195   9193   9194 1
  9196   9193   9198 1
  9197   9194   9195 1
  9198   9194   9196 1
  9199   9194   9197 1
  9200   9199   9200 1
  9201   9199   9201 1
  9202   9199   9212 1
  9203   9201   9202 1
  9204   9201   9203 1
  9205   9201   9211 1
  9206   9203   9204 1
  9207   9203   9205 1
  9208   9203   9210 1
  9209   9205   9206 1
  9210   9205   9207 1
  9211   9205   9208 1
  9212   9208   9209 1
  9213   9213   9214 1
  9214   9213   9215 1
  9215   9213   9228 1
  9216   9215   9216 1
  9217   9216   9217 1
  9218   9216   9218 1
  9219   9216   9223 1
  9220   9218   9219 1
  9221   9218   9220 1
  9222   9218   9221 1
  9223   9221   9222 1
  9224   9223   9224 1
  9225   9223   9225 1
  9226   9223   9226 1
  9227   9226   9227 1
  9228   9226   9228 1
  9229   9226   9238 1
  9230   9228   9229 1
  9231   9228   9230 1
  9232   9230   9231 1
  9233   9230   9232 1
  9234   9232   9233 1
  9235   9232   9234 1
  9236   9234   9235 1
  9237   9234   9236 1
  9238   9234   9237 1
  9239   9239   9240 1
  9240   9239   9241 1
  9241   9239   9262 1
  9242   9241   9242 1
  9243   9241   9243 1
  9244   9241   9251 1
  9245   9243   9244 1
  9246   9243   9245 1
  9247   9245   9246 1
  9248   9245   9250 1
  9249   9246   9247 1
  9250   9246   9248 1
  9251   9246   9249 1
  9252   9251   9252 1
  9253   9251   9253 1
  9254   9251   9264 1
  9255   9253   9254 1
  9256   9253   9255 1
  9257   9253   9263 1
  9258   9255   9256 1
  9259   9255   9257 1
  9260   9255   9262 1
  9261   9257   9258 1
  9262   9257   9259 1
  9263   9257   9260 1
  9264   9260   9261 1
  9265   9265   9266 1
  9266   9265   9267 1
  9267   9265   9276 1
  9268   9267   9268 1
  9269   9268   9269 1
  9270   9268   9270 1
  9271   9268   9271 1
  9272   9271   9272 1
  9273   9271   9273 1
  9274   9271   9274 1
  9275   9274   9275 1
  9276   9274   9276 1
  9277   9274   9280 1
  9278   9276   9277 1
  9279   9276   9278 1
  9280   9278   9279 1
  9281   9281   9282 1
  9282   9281   9283 1
  9283   9281   9294 1
  9284   9283   9284 1
  9285   9283   9285 1
  9286   9283   9287 1
  9287   9285   9286 1
  9288   9287   9288 1
  9289   9287   9289 1
  9290   9287   9296 1
  9291   9289   9290 1
  9292   9289   9291 1
  9293   9289   9295 1
  9294   9291   9292 1
  9295   9291   9293 1
  9296   9291   9294 1
  9297   9297   9298 1
  9298   9297   9299 1
  9299   9297   9312 1
  9300   9299   9300 1
  9301   9300   9301 1
  9302   9300   9302 1
  9303   9300   9307 1
  9304   9302   9303 1
  9305   9302   9304 1
  9306   9302   9305 1
  9307   9305   9306 1
  9308   9307   9308 1
  9309   9307   9309 1
  9310   9307   9310 1
  9311   9310   9311 1
  9312   9310   9312 1
  9313   9310   9322 1
  9314   9312   9313 1
  9315   9312   9314 1
  9316   9314   9315 1
  9317   9314   9316 1
  9318   9316   9317 1
  9319   9316   9318 1
  9320   9318   9319 1
  9321   9318   9320 1
  9322   9318   9321 1
  9323   9323   9324 1
  9324   9323   9325 1
  9325   9323   9346 1
  9326   9325   9326 1
  9327   9325   9327 1
  9328   9325   9335 1
  9329   9327   9328 1
  9330   9327   9329 1
  9331   9329   9330 1
  9332   9329   9334 1
  9333   9330   9331 1
  9334   9330   9332 1
  9335   9330   9333 1
  9336   9335   9336 1
  9337   9335   9337 1
  9338   9335   9348 1
  9339   9337   9338 1
  9340   9337   9339 1
  9341   9337   9347 1
  9342   9339   9340 1
  9343   9339   9341 1
  9344   9339   9346 1
  9345   9341   9342 1
  9346   9341   9343 1
  9347   9341   9344 1
  9348   9344   9345 1
  9349   9349   9350 1
  9350   9349   9351 1
  9351   9349   9362 1
  9352   9351   9352 1
  9353   9352   9353 1
  9354   9352   9354 1
  9355   9352   9357 1
  9356   9354   9355 1
  9357   9354   9356 1
  9358   9357   9358 1
  9359   9357   9359 1
  9360   9357   9360 1
  9361   9360   9361 1
  9362   9360   9362 1
  9363   9360   9366 1
  9364   9362   9363 1
  9365   9362   9364 1
  9366   9364   9365 1
  9367   9367   9368 1
  9368   9367   9369 1
  9369   9367   9382 1
  9370   9369   9370 1
  9371   9369   9371 1
  9372   9369   9373 1
  9373   9371   9372 1
  9374   9373   9374 1
  9375   9373   9375 1
  9376   9373   9384 1
  9377   9375   9376 1
  9378   9375   9377 1
  9379   9375   9383 1
  9380   9377   9378 1
  9381   9377   9379 1
  9382   9377   9382 1
  9383   9379   9380 1
  9384   9379   9381 1
  9385   9385   9386 1
  9386   9385   9387 1
  9387   9385   9402 1
  9388   9387   9388 1
  9389   9388   9389 1
  9390   9388   9390 1
  9391   9388   9394 1
  9392   9390   9391 1
  9393   9390   9392 1
  9394   9390   9393 1
  9395   9394   9395 1
  9396   9394   9396 1
  9397   9394   9398 1
  9398   9396   9397 1
  9399   9398   9399 1
  9400   9398   9400 1
  9401   9398   9402 1
  9402   9400   9401 1
  9403   9402   9403 1
  9404   9402   9404 1
  9405   9405   9406 1
  9406   9405   9407 1
  9407   9405   9419 1
  9408   9407   9408 1
  9409   9407   9409 1
  9410   9407   9424 1
  9411   9409   9410 1
  9412   9409   9411 1
  9413   9409   9422 1
  9414   9411   9412 1
  9415   9411   9413 1
  9416   9411   9420 1
  9417   9413   9414 1
  9418   9413   9415 1
  9419   9413   9419 1
  9420   9415   9416 1
  9421   9415   9417 1
  9422   9415   9418 1
  9423   9420   9421 1
  9424   9422   9423 1
  9425   9425   9426 1
  9426   9425   9427 1
  9427   9425   9442 1
  9428   9427   9428 1
  9429   9428   9429 1
  9430   9428   9430 1
  9431   9428   9434 1
  9432   9430   9431 1
  9433   9430   9432 1
  9434   9430   9433 1
  9435   9434   9435 1
  9436   9434   9436 1
  9437   9434   9438 1
  9438   9436   9437 1
  9439   9438   9439 1
  9440   9438   9440 1
  9441   9438   9442 1
  9442   9440   9441 1
  9443   9442   9443 1
  9444   9442   9444 1
  9445   9445   9446 1
  9446   9445   9447 1
  9447   9445   9459 1
  9448   9447   9448 1
  9449   9447   9449 1
  9450   9447   9464 1
  9451   9449   9450 1
  9452   9449   9451 1
  9453   9449   9462 1
  9454   9451   9452 1
  9455   9451   9453 1
  9456   9451   9460 1
  9457   9453   9454 1
  9458   9453   9455 1
  9459   9453   9459 1
  9460   9455   9456 1
  9461   9455   9457 1
  9462   9455   9458 1
  9463   9460   9461 1
  9464   9462   9463 1
  9465   9465   9466 1
  9466   9465   9467 1
  9467   9465   9482 1
  9468   9467   9468 1
  9469   9468   9469 1
  9470   9468   9470 1
  9471   9468   9474 1
  9472   9470   9471 1
  9473   9470   9472 1
  9474   9470   9473 1
  9475   9474   9475 1
  9476   9474   9476 1
  9477   9474   9478 1
  9478   9476   9477 1
  9479   9478   9479 1
  9480   9478   9480 1
  9481   9478   9482 1
  9482   9480   9481 1
  9483   9482   9483 1
  9484   9482   9484 1
  9485   9485   9486 1
  9486   9485   9487 1
  9487   9485   9499 1
  9488   9487   9488 1
  9489   9487   9489 1
  9490   9487   9504 1
  9491   9489   9490 1
  9492   9489   9491 1
  9493   9489   9502 1
  9494   9491   9492 1
  9495   9491   9493 1
  9496   9491   9500 1
  9497   9493   9494 1
  9498   9493   9495 1
  9499   9493   9499 1
  9500   9495   9496 1
  9501   9495   9497 1
  9502   9495   9498 1
  9503   9500   9501 1
  9504   9502   9503 1
  9505   9505   9506 1
  9506   9505   9507 1
  9507   9505   9522 1
  9508   9507   9508 1
  9509   9508   9509 1
  9510   9508   9510 1
  9511   9508   9514 1
  9512   9510   9511 1
  9513   9510   9512 1
  9514   9510   9513 1
  9515   9514   9515 1
  9516   9514   9516 1
  9517   9514   9518 1
  9518   9516   9517 1
  9519   9518   9519 1
  9520   9518   9520 1
  9521   9518   9522 1
  9522   9520   9521 1
  9523   9522   9523 1
  9524   9522   9524 1
  9525   9525   9526 1
  9526   9525   9527 1
  9527   9525   9539 1
  9528   9527   9528 1
  9529   9527   9529 1
  9530   9527   9544 1
  9531   9529   9530 1
  9532   9529   9531 1
  9533   9529   9542 1
  9534   9531   9532 1
  9535   9531   9533 1
  9536   9531   9540 1
  9537   9533   9534 1
  9538   9533   9535 1
  9539   9533   9539 1
  9540   9535   9536 1
  9541   9535   9537 1
  9542   9535   9538 1
  9543   9540   9541 1
  9544   9542   9543 1
  9545   9545   9546 1
  9546   9545   9547 1
  9547   9545   9562 1
  9548   9547   9548 1
  9549   9548   9549 1
  9550   9548   9550 1
  9551   9548   9554 1
  9552   9550   9551 1
  9553   9550   9552 1
  9554   9550   9553 1
  9555   9554   9555 1
  9556   9554   9556 1
  9557   9554   9558 1
  9558   9556   9557 1
  9559   9558   9559 1
  9560   9558   9560 1
  9561   9558   9562 1
  9562   9560   9561 1
  9563   9562   9563 1
  9564   9562   9564 1
  9565   9565   9566 1
  9566   9565   9567 1
  9567   9565   9579 1
  9568   9567   9568 1
  9569   9567   9569 1
  9570   9567   9584 1
  9571   9569   9570 1
  9572   9569   9571 1
  9573   9569   9582 1
  9574   9571   9572 1
  9575   9571   9573 1
  9576   9571   9580 1
  9577   9573   9574 1
  9578   9573   9575 1
  9579   9573   9579 1
  9580   9575   9576 1
  9581   9575   9577 1
  9582   9575   9578 1
  9583   9580   9581 1
  9584   9582   9583 1
  9585   9585   9586 1
  9586   9585   9587 1
  9587   9585   9602 1
  9588   9587   9588 1
  9589   9588   9589 1
  9590   9588   9590 1
  9591   9588   9594 1
  9592   9590   9591 1
  9593   9590   9592 1
  9594   9590   9593 1
  9595   9594   9595 1
  9596   9594   9596 1
  9597   9594   9598 1
  9598   9596   9597 1
  9599   9598   9599 1
  9600   9598   9600 1
  9601   9598   9602 1
  9602   9600   9601 1
  9603   9602   9603 1
  9604   9602   9604 1
  9605   9605   9606 1
  9606   9605   9607 1
  9607   9605   9619 1
  9608   9607   9608 1
  9609   9607   9609 1
  9610   9607   9624 1
  9611   9609   9610 1
  9612   9609   9611 1
  9613   9609   9622 1
  9614   9611   9612 1
  9615   9611   9613 1
  9616   9611   9620 1
  9617   9613   9614 1
  9618   9613   9615 1
  9619   9613   9619 1
  9620   9615   9616 1
  9621   9615   9617 1
  9622   9615   9618 1
  9623   9620   9621 1
  9624   9622   9623 1
  9625   9625   9626 1
  9626   9625   9627 1
  9627   9625   9642 1
  9628   9627   9628 1
  9629   9628   9629 1
  9630   9628   9630 1
  9631   9628   9634 1
  9632   9630   9631 1
  9633   9630   9632 1
  9634   9630   9633 1
  9635   9634   9635 1
  9636   9634   9636 1
  9637   9634   9638 1
  9638   9636   9637 1
  9639   9638   9639 1
  9640   9638   9640 1
  9641   9638   9642 1
  9642   9640   9641 1
  9643   9642   9643 1
  9644   9642   9644 1
  9645   9645   9646 1
  9646   9645   9647 1
  9647   9645   9659 1
  9648   9647   9648 1
  9649   9647   9649 1
  9650   9647   9664 1
  9651   9649   9650 1
  9652   9649   9651 1
  9653   9649   9662 1
  9654   9651   9652 1
  9655   9651   9653 1
  9656   9651   9660 1
  9657   9653   9654 1
  9658   9653   9655 1
  9659   9653   9659 1
  9660   9655   9656 1
  9661   9655   9657 1
  9662   9655   9658 1
  9663   9660   9661 1
  9664   9662   9663 1
  9665   9665   9666 1
  9666   9665   9667 1
  9667   9665   9678 1
  9668   9667   9668 1
  9669   9668   9669 1
  9670   9668   9670 1
  9671   9668   9671 1
  9672   9671   9672 1
  9673   9671   9673 1
  9674   9671   9674 1
  9675   9674   9675 1
  9676   9674   9676 1
  9677   9674   9678 1
  9678   9676   9677 1
  9679   9678   9679 1
  9680   9678   9680 1
  9681   9681   9682 1
  9682   9681   9683 1
  9683   9681   9692 1
  9684   9683   9684 1
  9685   9683   9685 1
  9686   9683   9696 1
  9687   9685   9686 1
  9688   9685   9687 1
  9689   9685   9694 1
  9690   9687   9688 1
  9691   9687   9689 1
  9692   9687   9693 1
  9693   9689   9690 1
  9694   9689   9691 1
  9695   9689   9692 1
  9696   9694   9695 1
  9697   9697   9698 1
  9698   9697   9699 1
  9699   9697   9710 1
  9700   9699   9700 1
  9701   9700   9701 1
  9702   9700   9702 1
  9703   9700   9703 1
  9704   9703   9704 1
  9705   9703   9705 1
  9706   9703   9706 1
  9707   9706   9707 1
  9708   9706   9708 1
  9709   9706   9710 1
  9710   9708   9709 1
  9711   9710   9711 1
  9712   9710   9712 1
  9713   9713   9714 1
  9714   9713   9715 1
  9715   9713   9724 1
  9716   9715   9716 1
  9717   9715   9717 1
  9718   9715   9728 1
  9719   9717   9718 1
  9720   9717   9719 1
  9721   9717   9726 1
  9722   9719   9720 1
  9723   9719   9721 1
  9724   9719   9725 1
  9725   9721   9722 1
  9726   9721   9723 1
  9727   9721   9724 1
  9728   9726   9727 1
  9729   9729   9730 1
  9730   9729   9731 1
  9731   9729   9746 1
  9732   9731   9732 1
  9733   9732   9733 1
  9734   9732   9734 1
  9735   9732   9739 1
  9736   9734   9735 1
  9737   9734   9736 1
  9738   9734   9737 1
  9739   9737   9738 1
  9740   9739   9740 1
  9741   9739   9741 1
  9742   9739   9742 1
  9743   9742   9743 1
  9744   9742   9744 1
  9745   9742   9746 1
  9746   9744   9745 1
  9747   9746   9747 1
  9748   9746   9748 1
  9749   9749   9750 1
  9750   9749   9751 1
  9751   9749   9764 1
  9752   9751   9752 1
  9753   9751   9753 1
  9754   9751   9768 1
  9755   9753   9754 1
  9756   9753   9755 1
  9757   9753   9766 1
  9758   9755   9756 1
  9759   9755   9757 1
  9760   9755   9765 1
  9761   9757   9758 1
  9762   9757   9759 1
  9763   9757   9764 1
  9764   9759   9760 1
  9765   9759   9761 1
  9766   9759   9762 1
  9767   9762   9763 1
  9768   9766   9767 1
  9769   9769   9770 1
  9770   9769   9771 1
  9771   9769   9785 1
  9772   9771   9772 1
  9773   9772   9773 1
  9774   9772   9774 1
  9775   9772   9778 1
  9776   9774   9775 1
  9777   9774   9776 1
  9778   9774   9777 1
  9779   9778   9779 1
  9780   9778   9780 1
  9781   9778   9781 1
  9782   9781   9782 1
  9783   9781   9783 1
  9784   9781   9785 1
  9785   9783   9784 1
  9786   9785   9786 1
  9787   9785   9787 1
  9788   9788   9789 1
  9789   9788   9790 1
  9790   9788   9802 1
  9791   9790   9791 1
  9792   9790   9792 1
  9793   9790   9806 1
  9794   9792   9793 1
  9795   9792   9794 1
  9796   9792   9804 1
  9797   9794   9795 1
  9798   9794   9796 1
  9799   9794   9803 1
  9800   9796   9797 1
  9801   9796   9798 1
  9802   9796   9802 1
  9803   9798   9799 1
  9804   9798   9800 1
  9805   9798   9801 1
  9806   9804   9805 1
  9807   9807   9808 1
  9808   9807   9809 1
  9809   9807   9824 1
  9810   9809   9810 1
  9811   9810   9811 1
  9812   9810   9812 1
  9813   9810   9817 1
  9814   9812   9813 1
  9815   9812   9814 1
  9816   9812   9815 1
  9817   9815   9816 1
  9818   9817   9818 1
  9819   9817   9819 1
  9820   9817   9820 1
  9821   9820   9821 1
  9822   9820   9822 1
  9823   9820   9824 1
  9824   9822   9823 1
  9825   9824   9825 1
  9826   9824   9826 1
  9827   9827   9828 1
  9828   9827   9829 1
  9829   9827   9842 1
  9830   9829   9830 1
  9831   9829   9831 1
  9832   9829   9846 1
  9833   9831   9832 1
  9834   9831   9833 1
  9835   9831   9844 1
  9836   9833   9834 1
  9837   9833   9835 1
  9838   9833   9843 1
  9839   9835   9836 1
  9840   9835   9837 1
  9841   9835   9842 1
  9842   9837   9838 1
  9843   9837   9839 1
  9844   9837   9840 1
  9845   9840   9841 1
  9846   9844   9845 1
  9847   9847   9848 1
  9848   9847   9849 1
  9849   9847   9863 1
  9850   9849   9850 1
  9851   9850   9851 1
  9852   9850   9852 1
  9853   9850   9856 1
  9854   9852   9853 1
  9855   9852   9854 1
  9856   9852   9855 1
  9857   9856   9857 1
  9858   9856   9858 1
  9859   9856   9859 1
  9860   9859   9860 1
  9861   9859   9861 1
  9862   9859   9863 1
  9863   9861   9862 1
  9864   9863   9864 1
  9865   9863   9865 1
  9866   9866   9867 1
  9867   9866   9868 1
  9868   9866   9880 1
  9869   9868   9869 1
  9870   9868   9870 1
  9871   9868   9884 1
  9872   9870   9871 1
  9873   9870   9872 1
  9874   9870   9882 1
  9875   9872   9873 1
  9876   9872   9874 1
  9877   9872   9881 1
  9878   9874   9875 1
  9879   9874   9876 1
  9880   9874   9880 1
  9881   9876   9877 1
  9882   9876   9878 1
  9883   9876   9879 1
  9884   9882   9883 1
  9885   9885   9886 1
  9886   9885   9887 1
  9887   9885   9902 1
  9888   9887   9888 1
  9889   9888   9889 1
  9890   9888   9890 1
  9891   9888   9895 1
  9892   9890   9891 1
  9893   9890   9892 1
  9894   9890   9893 1
  9895   9893   9894 1
  9896   9895   9896 1
  9897   9895   9897 1
  9898   9895   9898 1
  9899   9898   9899 1
  9900   9898   9900 1
  9901   9898   9902 1
  9902   9900   9901 1
  9903   9902   9903 1
  9904   9902   9904 1
  9905   9905   9906 1
  9906   9905   9907 1
  9907   9905   9920 1
  9908   9907   9908 1
  9909   9907   9909 1
  9910   9907   9924 1
  9911   9909   9910 1
  9912   9909   9911 1
  9913   9909   9922 1
  9914   9911   9912 1
  9915   9911   9913 1
  9916   9911   9921 1
  9917   9913   9914 1
  9918   9913   9915 1
  9919   9913   9920 1
  9920   9915   9916 1
  9921   9915   9917 1
  9922   9915   9918 1
  9923   9918   9919 1
  9924   9922   9923 1
  9925   9925   9926 1
  9926   9925   9927 1
  9927   9925   9942 1
  9928   9927   9928 1
  9929   9928   9929 1
  9930   9928   9930 1
  9931   9928   9935 1
  9932   9930   9931 1
  9933   9930   9932 1
  9934   9930   9933 1
  9935   9933   9934 1
  9936   9935   9936 1
  9937   9935   9937 1
  9938   9935   9938 1
  9939   9938   9939 1
  9940   9938   9940 1
  9941   9938   9942 1
  9942   9940   9941 1
  9943   9942   9943 1
  9944   9942   9944 1
  9945   9945   9946 1
  9946   9945   9947 1
  9947   9945   9960 1
  9948   9947   9948 1
  9949   9947   9949 1
  9950   9947   9964 1
  9951   9949   9950 1
  9952   9949   9951 1
  9953   9949   9962 1
  9954   9951   9952 1
  9955   9951   9953 1
  9956   9951   9961 1
  9957   9953   9954 1
  9958   9953   9955 1
  9959   9953   9960 1
  9960   9955   9956 1
  9961   9955   9957 1
  9962   9955   9958 1
  9963   9958   9959 1
  9964   9962   9963 1
  9965   9965   9966 1
  9966   9965   9967 1
  9967   9965   9982 1
  9968   9967   9968 1
  9969   9968   9969 1
  9970   9968   9970 1
  9971   9968   9975 1
  9972   9970   9971 1
  9973   9970   9972 1
  9974   9970   9973 1
  9975   9973   9974 1
  9976   9975   9976 1
  9977   9975   9977 1
  9978   9975   9978 1
  9979   9978   9979 1
  9980   9978   9980 1
  9981   9978   9982 1
  9982   9980   9981 1
  9983   9982   9983 1
  9984   9982   9984 1
  9985   9985   9986 1
  9986   9985   9987 1
  9987   9985  10000 1
  9988   9987   9988 1
  9989   9987   9989 1
  9990   9987  10004 1
  9991   9989   9990 1
  9992   9989   9991 1
  9993   9989  10002 1
  9994   9991   9992 1
  9995   9991   9993 1
  9996   9991  10001 1
  9997   9993   9994 1
  9998   9993   9995 1
  9999   9993  10000 1
 10000   9995   9996 1
 10001   9995   9997 1
 10002   9995   9998 1
 10003   9998   9999 1
 10004  10002  10003 1
 10005  10005  10006 1
 10006  10005  10007 1
 10007  10005  10022 1
 10008  10007  10008 1
 10009  10008  10009 1
 10010  10008  10010 1
 10011  10008  10015 1
 10012  10010  10011 1
 10013  10010  10012 1
 10014  10010  10013 1
 10015  10013  10014 1
 10016  10015  10016 1
 10017  10015  10017 1
 10018  10015  10018 1
 10019  10018  10019 1
 10020  10018  10020 1
 10021  10018  10022 1
 10022  10020  10021 1
 10023  10022  10023 1
 10024  10022  10024 1
 10025  10025  10026 1
 10026  10025  10027 1
 10027  10025  10040 1
 10028  10027  10028 1
 10029  10027  10029 1
 10030  10027  10044 1
 10031  10029  10030 1
 10032  10029  10031 1
 10033  10029  10042 1
 10034  10031  10032 1
 10035  10031  10033 1
 10036  10031  10041 1
 10037  10033  10034 1
 10038  10033  10035 1
 10039  10033  10040 1
 10040  10035  10036 1
 10041  10035  10037 1
 10042  10035  10038 1
 10043  10038  10039 1
 10044  10042  10043 1
 10045  10045  10046 1
 10046  10045  10047 1
 10047  10045  10060 1
 10048  10047  10048 1
 10049  10048  10049 1
 10050  10048  10050 1
 10051  10048  10053 1
 10052  10050  10051 1
 10053  10050  10052 1
 10054  10053  10054 1
 10055  10053  10055 1
 10056  10053  10056 1
 10057  10056  10057 1
 10058  10056  10058 1
 10059  10056  10060 1
 10060  10058  10059 1
 10061  10060  10061 1
 10062  10060  10062 1
 10063  10063  10064 1
 10064  10063  10065 1
 10065  10063  10076 1
 10066  10065  10066 1
 10067  10065  10067 1
 10068  10065  10080 1
 10069  10067  10068 1
 10070  10067  10069 1
 10071  10067  10078 1
 10072  10069  10070 1
 10073  10069  10071 1
 10074  10069  10077 1
 10075  10071  10072 1
 10076  10071  10073 1
 10077  10071  10076 1
 10078  10073  10074 1
 10079  10073  10075 1
 10080  10078  10079 1
 10081  10081  10082 1
 10082  10081  10083 1
 10083  10081  10097 1
 10084  10083  10084 1
 10085  10084  10085 1
 10086  10084  10086 1
 10087  10084  10090 1
 10088  10086  10087 1
 10089  10086  10088 1
 10090  10086  10089 1
 10091  10090  10091 1
 10092  10090  10092 1
 10093  10090  10093 1
 10094  10093  10094 1
 10095  10093  10095 1
 10096  10093  10097 1
 10097  10095  10096 1
 10098  10097  10098 1
 10099  10097  10099 1
 10100  10100  10101 1
 10101  10100  10102 1
 10102  10100  10114 1
 10103  10102  10103 1
 10104  10102  10104 1
 10105  10102  10118 1
 10106  10104  10105 1
 10107  10104  10106 1
 10108  10104  10116 1
 10109  10106  10107 1
 10110  10106  10108 1
 10111  10106  10115 1
 10112  10108  10109 1
 10113  10108  10110 1
 10114  10108  10114 1
 10115  10110  10111 1
 10116  10110  10112 1
 10117  10110  10113 1
 10118  10116  10117 1
 10119  10119  10120 1
 10120  10119  10121 1
 10121  10119  10132 1
 10122  10121  10122 1
 10123  10122  10123 1
 10124  10122  10124 1
 10125  10122  10125 1
 10126  10125  10126 1
 10127  10125  10127 1
 10128  10125  10128 1
 10129  10128  10129 1
 10130  10128  10130 1
 10131  10128  10132 1
 10132  10130  10131 1
 10133  10132  10133 1
 10134  10132  10134 1
 10135  10135  10136 1
 10136  10135  10137 1
 10137  10135  10146 1
 10138  10137  10138 1
 10139  10137  10139 1
 10140  10137  10150 1
 10141  10139  10140 1
 10142  10139  10141 1
 10143  10139  10148 1
 10144  10141  10142 1
 10145  10141  10143 1
 10146  10141  10147 1
 10147  10143  10144 1
 10148  10143  10145 1
 10149  10143  10146 1
 10150  10148  10149 1
 10151  10151  10152 1
 10152  10151  10153 1
 10153  10151  10168 1
 10154  10153  10154 1
 10155  10154  10155 1
 10156  10154  10156 1
 10157  10154  10161 1
 10158  10156  10157 1
 10159  10156  10158 1
 10160  10156  10159 1
 10161  10159  10160 1
 10162  10161  10162 1
 10163  10161  10163 1
 10164  10161  10164 1
 10165  10164  10165 1
 10166  10164  10166 1
 10167  10164  10168 1
 10168  10166  10167 1
 10169  10168  10169 1
 10170  10168  10170 1
 10171  10171  10172 1
 10172  10171  10173 1
 10173  10171  10186 1
 10174  10173  10174 1
 10175  10173  10175 1
 10176  10173  10190 1
 10177  10175  10176 1
 10178  10175  10177 1
 10179  10175  10188 1
 10180  10177  10178 1
 10181  10177  10179 1
 10182  10177  10187 1
 10183  10179  10180 1
 10184  10179  10181 1
 10185  10179  10186 1
 10186  10181  10182 1
 10187  10181  10183 1
 10188  10181  10184 1
 10189  10184  10185 1
 10190  10188  10189 1
 10191  10191  10192 1
 10192  10191  10193 1
 10193  10191  10206 1
 10194  10193  10194 1
 10195  10194  10195 1
 10196  10194  10196 1
 10197  10194  10199 1
 10198  10196  10197 1
 10199  10196  10198 1
 10200  10199  10200 1
 10201  10199  10201 1
 10202  10199  10202 1
 10203  10202  10203 1
 10204  10202  10204 1
 10205  10202  10206 1
 10206  10204  10205 1
 10207  10206  10207 1
 10208  10206  10208 1
 10209  10209  10210 1
 10210  10209  10211 1
 10211  10209  10222 1
 10212  10211  10212 1
 10213  10211  10213 1
 10214  10211  10226 1
 10215  10213  10214 1
 10216  10213  10215 1
 10217  10213  10224 1
 10218  10215  10216 1
 10219  10215  10217 1
 10220  10215  10223 1
 10221  10217  10218 1
 10222  10217  10219 1
 10223  10217  10222 1
 10224  10219  10220 1
 10225  10219  10221 1
 10226  10224  10225 1
 10227  10227  10228 1
 10228  10227  10229 1
 10229  10227  10240 1
 10230  10229  10230 1
 10231  10230  10231 1
 10232  10230  10232 1
 10233  10230  10233 1
 10234  10233  10234 1
 10235  10233  10235 1
 10236  10233  10236 1
 10237  10236  10237 1
 10238  10236  10238 1
 10239  10236  10240 1
 10240  10238  10239 1
 10241  10240  10241 1
 10242  10240  10242 1
 10243  10243  10244 1
 10244  10243  10245 1
 10245  10243  10254 1
 10246  10245  10246 1
 10247  10245  10247 1
 10248  10245  10258 1
 10249  10247  10248 1
 10250  10247  10249 1
 10251  10247  10256 1
 10252  10249  10250 1
 10253  10249  10251 1
 10254  10249  10255 1
 10255  10251  10252 1
 10256  10251  10253 1
 10257  10251  10254 1
 10258  10256  10257 1
 10259  10259  10260 1
 10260  10259  10261 1
 10261  10259  10274 1
 10262  10261  10262 1
 10263  10262  10263 1
 10264  10262  10264 1
 10265  10262  10267 1
 10266  10264  10265 1
 10267  10264  10266 1
 10268  10267  10268 1
 10269  10267  10269 1
 10270  10267  10270 1
 10271  10270  10271 1
 10272  10270  10272 1
 10273  10270  10274 1
 10274  10272  10273 1
 10275  10274  10275 1
 10276  10274  10276 1
 10277  10277  10278 1
 10278  10277  10279 1
 10279  10277  10290 1
 10280  10279  10280 1
 10281  10279  10281 1
 10282  10279  10294 1
 10283  10281  10282 1
 10284  10281  10283 1
 10285  10281  10292 1
 10286  10283  10284 1
 10287  10283  10285 1
 10288  10283  10291 1
 10289  10285  10286 1
 10290  10285  10287 1
 10291  10285  10290 1
 10292  10287  10288 1
 10293  10287  10289 1
 10294  10292  10293 1
 10295  10295  10296 1
 10296  10295  10297 1
 10297  10295  10308 1
 10298  10297  10298 1
 10299  10298  10299 1
 10300  10298  10300 1
 10301  10298  10301 1
 10302  10301  10302 1
 10303  10301  10303 1
 10304  10301  10305 1
 10305  10303  10304 1
 10306  10305  10306 1
 10307  10305  10307 1
 10308  10305  10308 1
 10309  10308  10309 1
 10310  10308  10310 1
 10311  10311  10312 1
 10312  10311  10313 1
 10313  10311  10322 1
 10314  10313  10314 1
 10315  10313  10315 1
 10316  10313  10326 1
 10317  10315  10316 1
 10318  10315  10317 1
 10319  10315  10325 1
 10320  10317  10318 1
 10321  10317  10319 1
 10322  10317  10323 1
 10323  10319  10320 1
 10324  10319  10321 1
 10325  10319  10322 1
 10326  10323  10324 1
 10327  10327  10328 1
 10328  10327  10329 1
 10329  10327  10340 1
 10330  10329  10330 1
 10331  10330  10331 1
 10332  10330  10332 1
 10333  10330  10333 1
 10334  10333  10334 1
 10335  10333  10335 1
 10336  10333  10337 1
 10337  10335  10336 1
 10338  10337  10338 1
 10339  10337  10339 1
 10340  10337  10340 1
 10341  10340  10341 1
 10342  10340  10342 1
 10343  10343  10344 1
 10344  10343  10345 1
 10345  10343  10354 1
 10346  10345  10346 1
 10347  10345  10347 1
 10348  10345  10358 1
 10349  10347  10348 1
 10350  10347  10349 1
 10351  10347  10357 1
 10352  10349  10350 1
 10353  10349  10351 1
 10354  10349  10355 1
 10355  10351  10352 1
 10356  10351  10353 1
 10357  10351  10354 1
 10358  10355  10356 1
 10359  10359  10360 1
 10360  10359  10361 1
 10361  10359  10376 1
 10362  10361  10362 1
 10363  10362  10363 1
 10364  10362  10364 1
 10365  10362  10369 1
 10366  10364  10365 1
 10367  10364  10366 1
 10368  10364  10367 1
 10369  10367  10368 1
 10370  10369  10370 1
 10371  10369  10371 1
 10372  10369  10373 1
 10373  10371  10372 1
 10374  10373  10374 1
 10375  10373  10375 1
 10376  10373  10376 1
 10377  10376  10377 1
 10378  10376  10378 1
 10379  10379  10380 1
 10380  10379  10381 1
 10381  10379  10394 1
 10382  10381  10382 1
 10383  10381  10383 1
 10384  10381  10398 1
 10385  10383  10384 1
 10386  10383  10385 1
 10387  10383  10397 1
 10388  10385  10386 1
 10389  10385  10387 1
 10390  10385  10395 1
 10391  10387  10388 1
 10392  10387  10389 1
 10393  10387  10394 1
 10394  10389  10390 1
 10395  10389  10391 1
 10396  10389  10392 1
 10397  10392  10393 1
 10398  10395  10396 1
 10399  10399  10400 1
 10400  10399  10401 1
 10401  10399  10415 1
 10402  10401  10402 1
 10403  10402  10403 1
 10404  10402  10404 1
 10405  10402  10408 1
 10406  10404  10405 1
 10407  10404  10406 1
 10408  10404  10407 1
 10409  10408  10409 1
 10410  10408  10410 1
 10411  10408  10412 1
 10412  10410  10411 1
 10413  10412  10413 1
 10414  10412  10414 1
 10415  10412  10415 1
 10416  10415  10416 1
 10417  10415  10417 1
 10418  10418  10419 1
 10419  10418  10420 1
 10420  10418  10432 1
 10421  10420  10421 1
 10422  10420  10422 1
 10423  10420  10436 1
 10424  10422  10423 1
 10425  10422  10424 1
 10426  10422  10435 1
 10427  10424  10425 1
 10428  10424  10426 1
 10429  10424  10433 1
 10430  10426  10427 1
 10431  10426  10428 1
 10432  10426  10432 1
 10433  10428  10429 1
 10434  10428  10430 1
 10435  10428  10431 1
 10436  10433  10434 1
 10437  10437  10438 1
 10438  10437  10439 1
 10439  10437  10454 1
 10440  10439  10440 1
 10441  10440  10441 1
 10442  10440  10442 1
 10443  10440  10447 1
 10444  10442  10443 1
 10445  10442  10444 1
 10446  10442  10445 1
 10447  10445  10446 1
 10448  10447  10448 1
 10449  10447  10449 1
 10450  10447  10451 1
 10451  10449  10450 1
 10452  10451  10452 1
 10453  10451  10453 1
 10454  10451  10454 1
 10455  10454  10455 1
 10456  10454  10456 1
 10457  10457  10458 1
 10458  10457  10459 1
 10459  10457  10472 1
 10460  10459  10460 1
 10461  10459  10461 1
 10462  10459  10476 1
 10463  10461  10462 1
 10464  10461  10463 1
 10465  10461  10475 1
 10466  10463  10464 1
 10467  10463  10465 1
 10468  10463  10473 1
 10469  10465  10466 1
 10470  10465  10467 1
 10471  10465  10472 1
 10472  10467  10468 1
 10473  10467  10469 1
 10474  10467  10470 1
 10475  10470  10471 1
 10476  10473  10474 1
 10477  10477  10478 1
 10478  10477  10479 1
 10479  10477  10493 1
 10480  10479  10480 1
 10481  10480  10481 1
 10482  10480  10482 1
 10483  10480  10486 1
 10484  10482  10483 1
 10485  10482  10484 1
 10486  10482  10485 1
 10487  10486  10487 1
 10488  10486  10488 1
 10489  10486  10490 1
 10490  10488  10489 1
 10491  10490  10491 1
 10492  10490  10492 1
 10493  10490  10493 1
 10494  10493  10494 1
 10495  10493  10495 1
 10496  10496  10497 1
 10497  10496  10498 1
 10498  10496  10510 1
 10499  10498  10499 1
 10500  10498  10500 1
 10501  10498  10514 1
 10502  10500  10501 1
 10503  10500  10502 1
 10504  10500  10513 1
 10505  10502  10503 1
 10506  10502  10504 1
 10507  10502  10511 1
 10508  10504  10505 1
 10509  10504  10506 1
 10510  10504  10510 1
 10511  10506  10507 1
 10512  10506  10508 1
 10513  10506  10509 1
 10514  10511  10512 1
 10515  10515  10516 1
 10516  10515  10517 1
 10517  10515  10532 1
 10518  10517  10518 1
 10519  10518  10519 1
 10520  10518  10520 1
 10521  10518  10525 1
 10522  10520  10521 1
 10523  10520  10522 1
 10524  10520  10523 1
 10525  10523  10524 1
 10526  10525  10526 1
 10527  10525  10527 1
 10528  10525  10529 1
 10529  10527  10528 1
 10530  10529  10530 1
 10531  10529  10531 1
 10532  10529  10532 1
 10533  10532  10533 1
 10534  10532  10534 1
 10535  10535  10536 1
 10536  10535  10537 1
 10537  10535  10550 1
 10538  10537  10538 1
 10539  10537  10539 1
 10540  10537  10554 1
 10541  10539  10540 1
 10542  10539  10541 1
 10543  10539  10553 1
 10544  10541  10542 1
 10545  10541  10543 1
 10546  10541  10551 1
 10547  10543  10544 1
 10548  10543  10545 1
 10549  10543  10550 1
 10550  10545  10546 1
 10551  10545  10547 1
 10552  10545  10548 1
 10553  10548  10549 1
 10554  10551  10552 1
 10555  10555  10556 1
 10556  10555  10557 1
 10557  10555  10572 1
 10558  10557  10558 1
 10559  10558  10559 1
 10560  10558  10560 1
 10561  10558  10565 1
 10562  10560  10561 1
 10563  10560  10562 1
 10564  10560  10563 1
 10565  10563  10564 1
 10566  10565  10566 1
 10567  10565  10567 1
 10568  10565  10569 1
 10569  10567  10568 1
 10570  10569  10570 1
 10571  10569  10571 1
 10572  10569  10572 1
 10573  10572  10573 1
 10574  10572  10574 1
 10575  10575  10576 1
 10576  10575  10577 1
 10577  10575  10590 1
 10578  10577  10578 1
 10579  10577  10579 1
 10580  10577  10594 1
 10581  10579  10580 1
 10582  10579  10581 1
 10583  10579  10593 1
 10584  10581  10582 1
 10585  10581  10583 1
 10586  10581  10591 1
 10587  10583  10584 1
 10588  10583  10585 1
 10589  10583  10590 1
 10590  10585  10586 1
 10591  10585  10587 1
 10592  10585  10588 1
 10593  10588  10589 1
 10594  10591  10592 1
 10595  10595  10596 1
 10596  10595  10597 1
 10597  10595  10612 1
 10598  10597  10598 1
 10599  10598  10599 1
 10600  10598  10600 1
 10601  10598  10605 1
 10602  10600  10601 1
 10603  10600  10602 1
 10604  10600  10603 1
 10605  10603  10604 1
 10606  10605  10606 1
 10607  10605  10607 1
 10608  10605  10609 1
 10609  10607  10608 1
 10610  10609  10610 1
 10611  10609  10611 1
 10612  10609  10612 1
 10613  10612  10613 1
 10614  10612  10614 1
 10615  10615  10616 1
 10616  10615  10617 1
 10617  10615  10630 1
 10618  10617  10618 1
 10619  10617  10619 1
 10620  10617  10634 1
 10621  10619  10620 1
 10622  10619  10621 1
 10623  10619  10633 1
 10624  10621  10622 1
 10625  10621  10623 1
 10626  10621  10631 1
 10627  10623  10624 1
 10628  10623  10625 1
 10629  10623  10630 1
 10630  10625  10626 1
 10631  10625  10627 1
 10632  10625  10628 1
 10633  10628  10629 1
 10634  10631  10632 1
 10635  10635  10636 1
 10636  10635  10637 1
 10637  10635  10652 1
 10638  10637  10638 1
 10639  10638  10639 1
 10640  10638  10640 1
 10641  10638  10645 1
 10642  10640  10641 1
 10643  10640  10642 1
 10644  10640  10643 1
 10645  10643  10644 1
 10646  10645  10646 1
 10647  10645  10647 1
 10648  10645  10649 1
 10649  10647  10648 1
 10650  10649  10650 1
 10651  10649  10651 1
 10652  10649  10652 1
 10653  10652  10653 1
 10654  10652  10654 1
 10655  10655  10656 1
 10656  10655  10657 1
 10657  10655  10670 1
 10658  10657  10658 1
 10659  10657  10659 1
 10660  10657  10674 1
 10661  10659  10660 1
 10662  10659  10661 1
 10663  10659  10673 1
 10664  10661  10662 1
 10665  10661  10663 1
 10666  10661  10671 1
 10667  10663  10664 1
 10668  10663  10665 1
 10669  10663  10670 1
 10670  10665  10666 1
 10671  10665  10667 1
 10672  10665  10668 1
 10673  10668  10669 1
 10674  10671  10672 1
 10675  10675  10676 1
 10676  10675  10677 1
 10677  10675  10690 1
 10678  10677  10678 1
 10679  10678  10679 1
 10680  10678  10680 1
 10681  10678  10683 1
 10682  10680  10681 1
 10683  10680  10682 1
 10684  10683  10684 1
 10685  10683  10685 1
 10686  10683  10687 1
 10687  10685  10686 1
 10688  10687  10688 1
 10689  10687  10689 1
 10690  10687  10690 1
 10691  10690  10691 1
 10692  10690  10692 1
 10693  10693  10694 1
 10694  10693  10695 1
 10695  10693  10706 1
 10696  10695  10696 1
 10697  10695  10697 1
 10698  10695  10710 1
 10699  10697  10698 1
 10700  10697  10699 1
 10701  10697  10709 1
 10702  10699  10700 1
 10703  10699  10701 1
 10704  10699  10707 1
 10705  10701  10702 1
 10706  10701  10703 1
 10707  10701  10706 1
 10708  10703  10704 1
 10709  10703  10705 1
 10710  10707  10708 1
 10711  10711  10712 1
 10712  10711  10713 1
 10713  10711  10727 1
 10714  10713  10714 1
 10715  10714  10715 1
 10716  10714  10716 1
 10717  10714  10720 1
 10718  10716  10717 1
 10719  10716  10718 1
 10720  10716  10719 1
 10721  10720  10721 1
 10722  10720  10722 1
 10723  10720  10724 1
 10724  10722  10723 1
 10725  10724  10725 1
 10726  10724  10726 1
 10727  10724  10727 1
 10728  10727  10728 1
 10729  10727  10729 1
 10730  10730  10731 1
 10731  10730  10732 1
 10732  10730  10744 1
 10733  10732  10733 1
 10734  10732  10734 1
 10735  10732  10748 1
 10736  10734  10735 1
 10737  10734  10736 1
 10738  10734  10747 1
 10739  10736  10737 1
 10740  10736  10738 1
 10741  10736  10745 1
 10742  10738  10739 1
 10743  10738  10740 1
 10744  10738  10744 1
 10745  10740  10741 1
 10746  10740  10742 1
 10747  10740  10743 1
 10748  10745  10746 1
 10749  10749  10750 1
 10750  10749  10751 1
 10751  10749  10762 1
 10752  10751  10752 1
 10753  10752  10753 1
 10754  10752  10754 1
 10755  10752  10755 1
 10756  10755  10756 1
 10757  10755  10757 1
 10758  10755  10759 1
 10759  10757  10758 1
 10760  10759  10760 1
 10761  10759  10761 1
 10762  10759  10762 1
 10763  10762  10763 1
 10764  10762  10764 1
 10765  10765  10766 1
 10766  10765  10767 1
 10767  10765  10776 1
 10768  10767  10768 1
 10769  10767  10769 1
 10770  10767  10780 1
 10771  10769  10770 1
 10772  10769  10771 1
 10773  10769  10779 1
 10774  10771  10772 1
 10775  10771  10773 1
 10776  10771  10777 1
 10777  10773  10774 1
 10778  10773  10775 1
 10779  10773  10776 1
 10780  10777  10778 1
 10781  10781  10782 1
 10782  10781  10783 1
 10783  10781  10798 1
 10784  10783  10784 1
 10785  10784  10785 1
 10786  10784  10786 1
 10787  10784  10791 1
 10788  10786  10787 1
 10789  10786  10788 1
 10790  10786  10789 1
 10791  10789  10790 1
 10792  10791  10792 1
 10793  10791  10793 1
 10794  10791  10795 1
 10795  10793  10794 1
 10796  10795  10796 1
 10797  10795  10797 1
 10798  10795  10798 1
 10799  10798  10799 1
 10800  10798  10800 1
 10801  10801  10802 1
 10802  10801  10803 1
 10803  10801  10816 1
 10804  10803  10804 1
 10805  10803  10805 1
 10806  10803  10820 1
 10807  10805  10806 1
 10808  10805  10807 1
 10809  10805  10819 1
 10810  10807  10808 1
 10811  10807  10809 1
 10812  10807  10817 1
 10813  10809  10810 1
 10814  10809  10811 1
 10815  10809  10816 1
 10816  10811  10812 1
 10817  10811  10813 1
 10818  10811  10814 1
 10819  10814  10815 1
 10820  10817  10818 1
 10821  10821  10822 1
 10822  10821  10823 1
 10823  10821  10836 1
 10824  10823  10824 1
 10825  10824  10825 1
 10826  10824  10826 1
 10827  10824  10829 1
 10828  10826  10827 1
 10829  10826  10828 1
 10830  10829  10830 1
 10831  10829  10831 1
 10832  10829  10833 1
 10833  10831  10832 1
 10834  10833  10834 1
 10835  10833  10835 1
 10836  10833  10836 1
 10837  10836  10837 1
 10838  10836  10838 1
 10839  10839  10840 1
 10840  10839  10841 1
 10841  10839  10852 1
 10842  10841  10842 1
 10843  10841  10843 1
 10844  10841  10856 1
 10845  10843  10844 1
 10846  10843  10845 1
 10847  10843  10855 1
 10848  10845  10846 1
 10849  10845  10847 1
 10850  10845  10853 1
 10851  10847  10848 1
 10852  10847  10849 1
 10853  10847  10852 1
 10854  10849  10850 1
 10855  10849  10851 1
 10856  10853  10854 1
 10857  10857  10858 1
 10858  10857  10859 1
 10859  10857  10870 1
 10860  10859  10860 1
 10861  10860  10861 1
 10862  10860  10862 1
 10863  10860  10863 1
 10864  10863  10864 1
 10865  10863  10865 1
 10866  10863  10867 1
 10867  10865  10866 1
 10868  10867  10868 1
 10869  10867  10869 1
 10870  10867  10870 1
 10871  10870  10871 1
 10872  10870  10872 1
 10873  10873  10874 1
 10874  10873  10875 1
 10875  10873  10884 1
 10876  10875  10876 1
 10877  10875  10877 1
 10878  10875  10888 1
 10879  10877  10878 1
 10880  10877  10879 1
 10881  10877  10887 1
 10882  10879  10880 1
 10883  10879  10881 1
 10884  10879  10885 1
 10885  10881  10882 1
 10886  10881  10883 1
 10887  10881  10884 1
 10888  10885  10886 1
 10889  10889  10890 1
 10890  10889  10891 1
 10891  10889  10904 1
 10892  10891  10892 1
 10893  10892  10893 1
 10894  10892  10894 1
 10895  10892  10897 1
 10896  10894  10895 1
 10897  10894  10896 1
 10898  10897  10898 1
 10899  10897  10899 1
 10900  10897  10901 1
 10901  10899  10900 1
 10902  10901  10902 1
 10903  10901  10903 1
 10904  10901  10904 1
 10905  10904  10905 1
 10906  10904  10906 1
 10907  10907  10908 1
 10908  10907  10909 1
 10909  10907  10920 1
 10910  10909  10910 1
 10911  10909  10911 1
 10912  10909  10924 1
 10913  10911  10912 1
 10914  10911  10913 1
 10915  10911  10923 1
 10916  10913  10914 1
 10917  10913  10915 1
 10918  10913  10921 1
 10919  10915  10916 1
 10920  10915  10917 1
 10921  10915  10920 1
 10922  10917  10918 1
 10923  10917  10919 1
 10924  10921  10922 1
@<TRIPOS>SUBSTRUCTURE
    1      0aA      1 ****               0 ****  **** 
    2      0aB     19 ****               0 ****  **** 
    3      0bA     37 ****               0 ****  **** 
    4      0bB     59 ****               0 ****  **** 
    5      0cA     81 ****               0 ****  **** 
    6      0cB    103 ****               0 ****  **** 
    7      0dA    125 ****               0 ****  **** 
    8      0dB    143 ****               0 ****  **** 
    9      0eA    161 ****               0 ****  **** 
   10      0eB    183 ****               0 ****  **** 
   11      0fA    205 ****               0 ****  **** 
   12      0fB    226 ****               0 ****  **** 
   13      0gA    247 ****               0 ****  **** 
   14      0gB    269 ****               0 ****  **** 
   15      0hA    291 ****               0 ****  **** 
   16      0hB    312 ****               0 ****  **** 
   17      0jA    333 ****               0 ****  **** 
   18      0jB    355 ****               0 ****  **** 
   19      0kA    377 ****               0 ****  **** 
   20      0kB    399 ****               0 ****  **** 
   21      0lA    421 ****               0 ****  **** 
   22      0lB    443 ****               0 ****  **** 
   23      0mA    465 ****               0 ****  **** 
   24      0mB    487 ****               0 ****  **** 
   25      0nA    509 ****               0 ****  **** 
   26      0nB    531 ****               0 ****  **** 
   27      0oA    553 ****               0 ****  **** 
   28      0oB    573 ****               0 ****  **** 
   29      0pA    593 ****               0 ****  **** 
   30      0pB    615 ****               0 ****  **** 
   31      0qA    637 ****               0 ****  **** 
   32      0qB    658 ****               0 ****  **** 
   33      0rA    679 ****               0 ****  **** 
   34      0rB    697 ****               0 ****  **** 
   35      0sA    715 ****               0 ****  **** 
   36      0sB    752 ****               0 ****  **** 
   37      0tA    789 ****               0 ****  **** 
   38      0tB    811 ****               0 ****  **** 
   39      0uA    833 ****               0 ****  **** 
   40      0uB    853 ****               0 ****  **** 
   41      0vA    873 ****               0 ****  **** 
   42      0vB    901 ****               0 ****  **** 
   43      0wA    929 ****               0 ****  **** 
   44      0wB    957 ****               0 ****  **** 
   45      0xA    985 ****               0 ****  **** 
   46      0xB   1003 ****               0 ****  **** 
   47      0yA   1021 ****               0 ****  **** 
   48      0yB   1049 ****               0 ****  **** 
   49      0zA   1077 ****               0 ****  **** 
   50      0zB   1097 ****               0 ****  **** 
   51      1aA   1117 ****               0 ****  **** 
   52      1aB   1136 ****               0 ****  **** 
   53      1bA   1155 ****               0 ****  **** 
   54      1bB   1176 ****               0 ****  **** 
   55      1cA   1197 ****               0 ****  **** 
   56      1cB   1218 ****               0 ****  **** 
   57      1dA   1239 ****               0 ****  **** 
   58      1dB   1258 ****               0 ****  **** 
   59      1eA   1277 ****               0 ****  **** 
   60      1eB   1300 ****               0 ****  **** 
   61      1fA   1323 ****               0 ****  **** 
   62      1fB   1345 ****               0 ****  **** 
   63      1gA   1367 ****               0 ****  **** 
   64      1gB   1390 ****               0 ****  **** 
   65      1hA   1413 ****               0 ****  **** 
   66      1hB   1435 ****               0 ****  **** 
   67      1jA   1457 ****               0 ****  **** 
   68      1jB   1478 ****               0 ****  **** 
   69      1kA   1499 ****               0 ****  **** 
   70      1kB   1522 ****               0 ****  **** 
   71      1lA   1545 ****               0 ****  **** 
   72      1lB   1568 ****               0 ****  **** 
   73      1mA   1591 ****               0 ****  **** 
   74      1mB   1614 ****               0 ****  **** 
   75      1nA   1637 ****               0 ****  **** 
   76      1nB   1660 ****               0 ****  **** 
   77      1oA   1683 ****               0 ****  **** 
   78      1oB   1704 ****               0 ****  **** 
   79      1pA   1725 ****               0 ****  **** 
   80      1pB   1746 ****               0 ****  **** 
   81      1qA   1767 ****               0 ****  **** 
   82      1qB   1789 ****               0 ****  **** 
   83      1rA   1811 ****               0 ****  **** 
   84      1rB   1830 ****               0 ****  **** 
   85      1tA   1849 ****               0 ****  **** 
   86      1tB   1872 ****               0 ****  **** 
   87      1uA   1895 ****               0 ****  **** 
   88      1uB   1916 ****               0 ****  **** 
   89      1vA   1937 ****               0 ****  **** 
   90      1vB   1966 ****               0 ****  **** 
   91      1wA   1995 ****               0 ****  **** 
   92      1wB   2024 ****               0 ****  **** 
   93      1xA   2053 ****               0 ****  **** 
   94      1xB   2072 ****               0 ****  **** 
   95      1yA   2091 ****               0 ****  **** 
   96      1yB   2120 ****               0 ****  **** 
   97      1zA   2149 ****               0 ****  **** 
   98      1zB   2170 ****               0 ****  **** 
   99      2aA   2191 ****               0 ****  **** 
  100      2aB   2208 ****               0 ****  **** 
  101      2bA   2225 ****               0 ****  **** 
  102      2bB   2248 ****               0 ****  **** 
  103      2cA   2271 ****               0 ****  **** 
  104      2cB   2294 ****               0 ****  **** 
  105      2dA   2317 ****               0 ****  **** 
  106      2dB   2334 ****               0 ****  **** 
  107      2eA   2351 ****               0 ****  **** 
  108      2eB   2372 ****               0 ****  **** 
  109      2fA   2393 ****               0 ****  **** 
  110      2fB   2413 ****               0 ****  **** 
  111      2gA   2433 ****               0 ****  **** 
  112      2gB   2454 ****               0 ****  **** 
  113      2hA   2475 ****               0 ****  **** 
  114      2hB   2495 ****               0 ****  **** 
  115      2jA   2515 ****               0 ****  **** 
  116      2jB   2538 ****               0 ****  **** 
  117      2kA   2561 ****               0 ****  **** 
  118      2kB   2582 ****               0 ****  **** 
  119      2lA   2603 ****               0 ****  **** 
  120      2lB   2624 ****               0 ****  **** 
  121      2mA   2645 ****               0 ****  **** 
  122      2mB   2666 ****               0 ****  **** 
  123      2nA   2687 ****               0 ****  **** 
  124      2nB   2708 ****               0 ****  **** 
  125      2oA   2729 ****               0 ****  **** 
  126      2oB   2748 ****               0 ****  **** 
  127      2pA   2767 ****               0 ****  **** 
  128      2pB   2790 ****               0 ****  **** 
  129      2qA   2813 ****               0 ****  **** 
  130      2qB   2833 ****               0 ****  **** 
  131      2rA   2853 ****               0 ****  **** 
  132      2rB   2870 ****               0 ****  **** 
  133      2tA   2887 ****               0 ****  **** 
  134      2tB   2908 ****               0 ****  **** 
  135      2uA   2929 ****               0 ****  **** 
  136      2uB   2948 ****               0 ****  **** 
  137      2xA   2967 ****               0 ****  **** 
  138      2xB   2984 ****               0 ****  **** 
  139      2zA   3001 ****               0 ****  **** 
  140      2zB   3020 ****               0 ****  **** 
  141      3aA   3039 ****               0 ****  **** 
  142      3aB   3056 ****               0 ****  **** 
  143      3bA   3073 ****               0 ****  **** 
  144      3bB   3094 ****               0 ****  **** 
  145      3cA   3115 ****               0 ****  **** 
  146      3cB   3136 ****               0 ****  **** 
  147      3dA   3157 ****               0 ****  **** 
  148      3dB   3174 ****               0 ****  **** 
  149      3eA   3191 ****               0 ****  **** 
  150      3eB   3212 ****               0 ****  **** 
  151      3fA   3233 ****               0 ****  **** 
  152      3fB   3253 ****               0 ****  **** 
  153      3gA   3273 ****               0 ****  **** 
  154      3gB   3294 ****               0 ****  **** 
  155      3hA   3315 ****               0 ****  **** 
  156      3hB   3335 ****               0 ****  **** 
  157      3jA   3355 ****               0 ****  **** 
  158      3jB   3376 ****               0 ****  **** 
  159      3kA   3397 ****               0 ****  **** 
  160      3kB   3418 ****               0 ****  **** 
  161      3lA   3439 ****               0 ****  **** 
  162      3lB   3460 ****               0 ****  **** 
  163      3mA   3481 ****               0 ****  **** 
  164      3mB   3502 ****               0 ****  **** 
  165      3nA   3523 ****               0 ****  **** 
  166      3nB   3544 ****               0 ****  **** 
  167      3oA   3565 ****               0 ****  **** 
  168      3oB   3584 ****               0 ****  **** 
  169      3pA   3603 ****               0 ****  **** 
  170      3pB   3624 ****               0 ****  **** 
  171      3qA   3645 ****               0 ****  **** 
  172      3qB   3665 ****               0 ****  **** 
  173      3rA   3685 ****               0 ****  **** 
  174      3rB   3702 ****               0 ****  **** 
  175      3tA   3719 ****               0 ****  **** 
  176      3tB   3740 ****               0 ****  **** 
  177      3uA   3761 ****               0 ****  **** 
  178      3uB   3780 ****               0 ****  **** 
  179      3vA   3799 ****               0 ****  **** 
  180      3vB   3826 ****               0 ****  **** 
  181      3wA   3853 ****               0 ****  **** 
  182      3wB   3880 ****               0 ****  **** 
  183      3xA   3907 ****               0 ****  **** 
  184      3xB   3924 ****               0 ****  **** 
  185      3yA   3941 ****               0 ****  **** 
  186      3yB   3968 ****               0 ****  **** 
  187      3zA   3995 ****               0 ****  **** 
  188      3zB   4014 ****               0 ****  **** 
  189      4aA   4033 ****               0 ****  **** 
  190      4aB   4050 ****               0 ****  **** 
  191      4bA   4067 ****               0 ****  **** 
  192      4bB   4088 ****               0 ****  **** 
  193      4cA   4109 ****               0 ****  **** 
  194      4cB   4130 ****               0 ****  **** 
  195      4dA   4151 ****               0 ****  **** 
  196      4dB   4168 ****               0 ****  **** 
  197      4eA   4185 ****               0 ****  **** 
  198      4eB   4206 ****               0 ****  **** 
  199      4fA   4227 ****               0 ****  **** 
  200      4fB   4247 ****               0 ****  **** 
  201      4gA   4267 ****               0 ****  **** 
  202      4gB   4288 ****               0 ****  **** 
  203      4hA   4309 ****               0 ****  **** 
  204      4hB   4329 ****               0 ****  **** 
  205      4jA   4349 ****               0 ****  **** 
  206      4jB   4370 ****               0 ****  **** 
  207      4kA   4391 ****               0 ****  **** 
  208      4kB   4412 ****               0 ****  **** 
  209      4lA   4433 ****               0 ****  **** 
  210      4lB   4454 ****               0 ****  **** 
  211      4mA   4475 ****               0 ****  **** 
  212      4mB   4496 ****               0 ****  **** 
  213      4nA   4517 ****               0 ****  **** 
  214      4nB   4538 ****               0 ****  **** 
  215      4oA   4559 ****               0 ****  **** 
  216      4oB   4578 ****               0 ****  **** 
  217      4pA   4597 ****               0 ****  **** 
  218      4pB   4618 ****               0 ****  **** 
  219      4qA   4639 ****               0 ****  **** 
  220      4qB   4659 ****               0 ****  **** 
  221      4rA   4679 ****               0 ****  **** 
  222      4rB   4696 ****               0 ****  **** 
  223      4sA   4713 ****               0 ****  **** 
  224      4sB   4749 ****               0 ****  **** 
  225      4tA   4785 ****               0 ****  **** 
  226      4tB   4806 ****               0 ****  **** 
  227      4uA   4827 ****               0 ****  **** 
  228      4uB   4846 ****               0 ****  **** 
  229      4vA   4865 ****               0 ****  **** 
  230      4vB   4892 ****               0 ****  **** 
  231      4wA   4919 ****               0 ****  **** 
  232      4wB   4946 ****               0 ****  **** 
  233      4xA   4973 ****               0 ****  **** 
  234      4xB   4990 ****               0 ****  **** 
  235      4yA   5007 ****               0 ****  **** 
  236      4yB   5034 ****               0 ****  **** 
  237      4zA   5061 ****               0 ****  **** 
  238      4zB   5080 ****               0 ****  **** 
  239      6eA   5099 ****               0 ****  **** 
  240      6eB   5120 ****               0 ****  **** 
  241      6gA   5141 ****               0 ****  **** 
  242      6gB   5162 ****               0 ****  **** 
  243      6kA   5183 ****               0 ****  **** 
  244      6kB   5204 ****               0 ****  **** 
  245      6lA   5225 ****               0 ****  **** 
  246      6lB   5246 ****               0 ****  **** 
  247      6mA   5267 ****               0 ****  **** 
  248      6mB   5288 ****               0 ****  **** 
  249      6nA   5309 ****               0 ****  **** 
  250      6nB   5330 ****               0 ****  **** 
  251      6tA   5351 ****               0 ****  **** 
  252      6tB   5372 ****               0 ****  **** 
  253      6vA   5393 ****               0 ****  **** 
  254      6vB   5420 ****               0 ****  **** 
  255      6wA   5447 ****               0 ****  **** 
  256      6wB   5474 ****               0 ****  **** 
  257      6yA   5501 ****               0 ****  **** 
  258      6yB   5528 ****               0 ****  **** 
  259      7sA   5555 ****               0 ****  **** 
  260      7sB   5591 ****               0 ****  **** 
  261      8sA   5627 ****               0 ****  **** 
  262      8sB   5663 ****               0 ****  **** 
  263      9sA   5699 ****               0 ****  **** 
  264      9sB   5735 ****               0 ****  **** 
  265      PeA   5771 ****               0 ****  **** 
  266      PeB   5789 ****               0 ****  **** 
  267      PgA   5807 ****               0 ****  **** 
  268      PgB   5825 ****               0 ****  **** 
  269      PkA   5843 ****               0 ****  **** 
  270      PkB   5861 ****               0 ****  **** 
  271      PlA   5879 ****               0 ****  **** 
  272      PlB   5897 ****               0 ****  **** 
  273      PmA   5915 ****               0 ****  **** 
  274      PmB   5933 ****               0 ****  **** 
  275      PnA   5951 ****               0 ****  **** 
  276      PnB   5969 ****               0 ****  **** 
  277      PtA   5987 ****               0 ****  **** 
  278      PtB   6005 ****               0 ****  **** 
  279      QeA   6023 ****               0 ****  **** 
  280      QeB   6042 ****               0 ****  **** 
  281      QgA   6061 ****               0 ****  **** 
  282      QgB   6080 ****               0 ****  **** 
  283      QkA   6099 ****               0 ****  **** 
  284      QkB   6118 ****               0 ****  **** 
  285      QlA   6137 ****               0 ****  **** 
  286      QlB   6156 ****               0 ****  **** 
  287      QmA   6175 ****               0 ****  **** 
  288      QmB   6194 ****               0 ****  **** 
  289      QnA   6213 ****               0 ****  **** 
  290      QnB   6232 ****               0 ****  **** 
  291      QtA   6251 ****               0 ****  **** 
  292      QtB   6270 ****               0 ****  **** 
  293      QvA   6289 ****               0 ****  **** 
  294      QvB   6314 ****               0 ****  **** 
  295      QwA   6339 ****               0 ****  **** 
  296      QwB   6364 ****               0 ****  **** 
  297      QyA   6389 ****               0 ****  **** 
  298      QyB   6414 ****               0 ****  **** 
  299      ReA   6439 ****               0 ****  **** 
  300      ReB   6458 ****               0 ****  **** 
  301      RgA   6477 ****               0 ****  **** 
  302      RgB   6496 ****               0 ****  **** 
  303      RkA   6515 ****               0 ****  **** 
  304      RkB   6534 ****               0 ****  **** 
  305      RlA   6553 ****               0 ****  **** 
  306      RlB   6572 ****               0 ****  **** 
  307      RmA   6591 ****               0 ****  **** 
  308      RmB   6610 ****               0 ****  **** 
  309      RnA   6629 ****               0 ****  **** 
  310      RnB   6648 ****               0 ****  **** 
  311      RtA   6667 ****               0 ****  **** 
  312      RtB   6686 ****               0 ****  **** 
  313      SeA   6705 ****               0 ****  **** 
  314      SeB   6724 ****               0 ****  **** 
  315      SgA   6743 ****               0 ****  **** 
  316      SgB   6762 ****               0 ****  **** 
  317      SkA   6781 ****               0 ****  **** 
  318      SkB   6800 ****               0 ****  **** 
  319      SlA   6819 ****               0 ****  **** 
  320      SlB   6838 ****               0 ****  **** 
  321      SmA   6857 ****               0 ****  **** 
  322      SmB   6876 ****               0 ****  **** 
  323      SnA   6895 ****               0 ****  **** 
  324      SnB   6914 ****               0 ****  **** 
  325      StA   6933 ****               0 ****  **** 
  326      StB   6952 ****               0 ****  **** 
  327      TaA   6971 ****               0 ****  **** 
  328      TaB   6986 ****               0 ****  **** 
  329      TdA   7001 ****               0 ****  **** 
  330      TdB   7016 ****               0 ****  **** 
  331      TeA   7031 ****               0 ****  **** 
  332      TeB   7050 ****               0 ****  **** 
  333      TfA   7069 ****               0 ****  **** 
  334      TfB   7087 ****               0 ****  **** 
  335      TgA   7105 ****               0 ****  **** 
  336      TgB   7124 ****               0 ****  **** 
  337      ThA   7143 ****               0 ****  **** 
  338      ThB   7161 ****               0 ****  **** 
  339      TkA   7179 ****               0 ****  **** 
  340      TkB   7198 ****               0 ****  **** 
  341      TlA   7217 ****               0 ****  **** 
  342      TlB   7236 ****               0 ****  **** 
  343      TmA   7255 ****               0 ****  **** 
  344      TmB   7274 ****               0 ****  **** 
  345      TnA   7293 ****               0 ****  **** 
  346      TnB   7312 ****               0 ****  **** 
  347      ToA   7331 ****               0 ****  **** 
  348      ToB   7348 ****               0 ****  **** 
  349      TqA   7365 ****               0 ****  **** 
  350      TqB   7383 ****               0 ****  **** 
  351      TrA   7401 ****               0 ****  **** 
  352      TrB   7416 ****               0 ****  **** 
  353      TtA   7431 ****               0 ****  **** 
  354      TtB   7450 ****               0 ****  **** 
  355      TuA   7469 ****               0 ****  **** 
  356      TuB   7486 ****               0 ****  **** 
  357      TxA   7503 ****               0 ****  **** 
  358      TxB   7518 ****               0 ****  **** 
  359      TzA   7533 ****               0 ****  **** 
  360      TzB   7550 ****               0 ****  **** 
  361      UeA   7567 ****               0 ****  **** 
  362      UeB   7587 ****               0 ****  **** 
  363      UgA   7607 ****               0 ****  **** 
  364      UgB   7627 ****               0 ****  **** 
  365      UkA   7647 ****               0 ****  **** 
  366      UkB   7667 ****               0 ****  **** 
  367      UlA   7687 ****               0 ****  **** 
  368      UlB   7707 ****               0 ****  **** 
  369      UmA   7727 ****               0 ****  **** 
  370      UmB   7747 ****               0 ****  **** 
  371      UnA   7767 ****               0 ****  **** 
  372      UnB   7787 ****               0 ****  **** 
  373      UtA   7807 ****               0 ****  **** 
  374      UtB   7827 ****               0 ****  **** 
  375      UvA   7847 ****               0 ****  **** 
  376      UvB   7873 ****               0 ****  **** 
  377      UwA   7899 ****               0 ****  **** 
  378      UwB   7925 ****               0 ****  **** 
  379      UyA   7951 ****               0 ****  **** 
  380      UyB   7977 ****               0 ****  **** 
  381      VeA   8003 ****               0 ****  **** 
  382      VeB   8023 ****               0 ****  **** 
  383      VgA   8043 ****               0 ****  **** 
  384      VgB   8063 ****               0 ****  **** 
  385      VkA   8083 ****               0 ****  **** 
  386      VkB   8103 ****               0 ****  **** 
  387      VlA   8123 ****               0 ****  **** 
  388      VlB   8143 ****               0 ****  **** 
  389      VmA   8163 ****               0 ****  **** 
  390      VmB   8183 ****               0 ****  **** 
  391      VnA   8203 ****               0 ****  **** 
  392      VnB   8223 ****               0 ****  **** 
  393      VtA   8243 ****               0 ****  **** 
  394      VtB   8263 ****               0 ****  **** 
  395      VvA   8283 ****               0 ****  **** 
  396      VvB   8309 ****               0 ****  **** 
  397      VwA   8335 ****               0 ****  **** 
  398      VwB   8361 ****               0 ****  **** 
  399      VyA   8387 ****               0 ****  **** 
  400      VyB   8413 ****               0 ****  **** 
  401      WaA   8439 ****               0 ****  **** 
  402      WaB   8455 ****               0 ****  **** 
  403      WbA   8471 ****               0 ****  **** 
  404      WbB   8491 ****               0 ****  **** 
  405      WcA   8511 ****               0 ****  **** 
  406      WcB   8531 ****               0 ****  **** 
  407      WdA   8551 ****               0 ****  **** 
  408      WdB   8567 ****               0 ****  **** 
  409      WeA   8583 ****               0 ****  **** 
  410      WeB   8603 ****               0 ****  **** 
  411      WfA   8623 ****               0 ****  **** 
  412      WfB   8642 ****               0 ****  **** 
  413      WgA   8661 ****               0 ****  **** 
  414      WgB   8681 ****               0 ****  **** 
  415      WhA   8701 ****               0 ****  **** 
  416      WhB   8720 ****               0 ****  **** 
  417      WjA   8739 ****               0 ****  **** 
  418      WjB   8759 ****               0 ****  **** 
  419      WkA   8779 ****               0 ****  **** 
  420      WkB   8799 ****               0 ****  **** 
  421      WlA   8819 ****               0 ****  **** 
  422      WlB   8839 ****               0 ****  **** 
  423      WmA   8859 ****               0 ****  **** 
  424      WmB   8879 ****               0 ****  **** 
  425      WnA   8899 ****               0 ****  **** 
  426      WnB   8919 ****               0 ****  **** 
  427      WoA   8939 ****               0 ****  **** 
  428      WoB   8957 ****               0 ****  **** 
  429      WpA   8975 ****               0 ****  **** 
  430      WpB   8995 ****               0 ****  **** 
  431      WqA   9015 ****               0 ****  **** 
  432      WqB   9034 ****               0 ****  **** 
  433      WrA   9053 ****               0 ****  **** 
  434      WrB   9069 ****               0 ****  **** 
  435      WtA   9085 ****               0 ****  **** 
  436      WtB   9105 ****               0 ****  **** 
  437      WuA   9125 ****               0 ****  **** 
  438      WuB   9143 ****               0 ****  **** 
  439      WvA   9161 ****               0 ****  **** 
  440      WvB   9187 ****               0 ****  **** 
  441      WwA   9213 ****               0 ****  **** 
  442      WwB   9239 ****               0 ****  **** 
  443      WxA   9265 ****               0 ****  **** 
  444      WxB   9281 ****               0 ****  **** 
  445      WyA   9297 ****               0 ****  **** 
  446      WyB   9323 ****               0 ****  **** 
  447      WzA   9349 ****               0 ****  **** 
  448      WzB   9367 ****               0 ****  **** 
  449      XeA   9385 ****               0 ****  **** 
  450      XeB   9405 ****               0 ****  **** 
  451      XgA   9425 ****               0 ****  **** 
  452      XgB   9445 ****               0 ****  **** 
  453      XkA   9465 ****               0 ****  **** 
  454      XkB   9485 ****               0 ****  **** 
  455      XlA   9505 ****               0 ****  **** 
  456      XlB   9525 ****               0 ****  **** 
  457      XmA   9545 ****               0 ****  **** 
  458      XmB   9565 ****               0 ****  **** 
  459      XnA   9585 ****               0 ****  **** 
  460      XnB   9605 ****               0 ****  **** 
  461      XtA   9625 ****               0 ****  **** 
  462      XtB   9645 ****               0 ****  **** 
  463      YaA   9665 ****               0 ****  **** 
  464      YaB   9681 ****               0 ****  **** 
  465      YdA   9697 ****               0 ****  **** 
  466      YdB   9713 ****               0 ****  **** 
  467      YeA   9729 ****               0 ****  **** 
  468      YeB   9749 ****               0 ****  **** 
  469      YfA   9769 ****               0 ****  **** 
  470      YfB   9788 ****               0 ****  **** 
  471      YgA   9807 ****               0 ****  **** 
  472      YgB   9827 ****               0 ****  **** 
  473      YhA   9847 ****               0 ****  **** 
  474      YhB   9866 ****               0 ****  **** 
  475      YkA   9885 ****               0 ****  **** 
  476      YkB   9905 ****               0 ****  **** 
  477      YlA   9925 ****               0 ****  **** 
  478      YlB   9945 ****               0 ****  **** 
  479      YmA   9965 ****               0 ****  **** 
  480      YmB   9985 ****               0 ****  **** 
  481      YnA  10005 ****               0 ****  **** 
  482      YnB  10025 ****               0 ****  **** 
  483      YoA  10045 ****               0 ****  **** 
  484      YoB  10063 ****               0 ****  **** 
  485      YqA  10081 ****               0 ****  **** 
  486      YqB  10100 ****               0 ****  **** 
  487      YrA  10119 ****               0 ****  **** 
  488      YrB  10135 ****               0 ****  **** 
  489      YtA  10151 ****               0 ****  **** 
  490      YtB  10171 ****               0 ****  **** 
  491      YuA  10191 ****               0 ****  **** 
  492      YuB  10209 ****               0 ****  **** 
  493      YxA  10227 ****               0 ****  **** 
  494      YxB  10243 ****               0 ****  **** 
  495      YzA  10259 ****               0 ****  **** 
  496      YzB  10277 ****               0 ****  **** 
  497      ZaA  10295 ****               0 ****  **** 
  498      ZaB  10311 ****               0 ****  **** 
  499      ZdA  10327 ****               0 ****  **** 
  500      ZdB  10343 ****               0 ****  **** 
  501      ZeA  10359 ****               0 ****  **** 
  502      ZeB  10379 ****               0 ****  **** 
  503      ZfA  10399 ****               0 ****  **** 
  504      ZfB  10418 ****               0 ****  **** 
  505      ZgA  10437 ****               0 ****  **** 
  506      ZgB  10457 ****               0 ****  **** 
  507      ZhA  10477 ****               0 ****  **** 
  508      ZhB  10496 ****               0 ****  **** 
  509      ZkA  10515 ****               0 ****  **** 
  510      ZkB  10535 ****               0 ****  **** 
  511      ZlA  10555 ****               0 ****  **** 
  512      ZlB  10575 ****               0 ****  **** 
  513      ZmA  10595 ****               0 ****  **** 
  514      ZmB  10615 ****               0 ****  **** 
  515      ZnA  10635 ****               0 ****  **** 
  516      ZnB  10655 ****               0 ****  **** 
  517      ZoA  10675 ****               0 ****  **** 
  518      ZoB  10693 ****               0 ****  **** 
  519      ZqA  10711 ****               0 ****  **** 
  520      ZqB  10730 ****               0 ****  **** 
  521      ZrA  10749 ****               0 ****  **** 
  522      ZrB  10765 ****               0 ****  **** 
  523      ZtA  10781 ****               0 ****  **** 
  524      ZtB  10801 ****               0 ****  **** 
  525      ZuA  10821 ****               0 ****  **** 
  526      ZuB  10839 ****               0 ****  **** 
  527      ZxA  10857 ****               0 ****  **** 
  528      ZxB  10873 ****               0 ****  **** 
  529      ZzA  10889 ****               0 ****  **** 
  530      ZzB  10907 ****               0 ****  **** 
