@<TRIPOS>MOLECULE
terminal
 7 5 2 0 1
SMALL
USER_CHARGES
@<TRIPOS>ATOM
     1   H1    0.987    0.355    0.362   H1     1      OME   0.000000
     2  CH3   -0.005    0.037    0.058   Cg     1      OME   0.264000
     3   H2   -0.652    0.888   -0.128   H1     1      OME   0.000000
     4   H3   -0.477   -0.571    0.822   H1     1      OME   0.000000
     5    O    0.147   -0.709   -1.115   Os     1      OME  -0.458000
     6  HO1   -0.105   -0.301    0.358   Ho     2      ROH   0.445000
     7   O1    0.105    0.301   -0.358   Oh     2      ROH  -0.639000
@<TRIPOS>BOND
     1      1      2 1
     2      2      3 1
     3      2      4 1
     4      2      5 1
     5      6      7 1
@<TRIPOS>SUBSTRUCTURE
    1      OME      1 ****               0 ****  **** 
    2      ROH      6 ****               0 ****  **** 
