@<TRIPOS>MOLECULE
ions
4 0 1 0 0
SMALL
USER_CHARGES


@<TRIPOS>ATOM
      1     LI  0.0000  0.0000  0.0000  Li+     1     LI    1
      2     NA  0.0000  0.0000  0.0000  Na+     2     NA    1
      3     K   0.0000  0.0000  0.0000  K+      3     K     1
      4     RB  0.0000  0.0000  0.0000  Rb+     4     RB    1
      5     CS  0.0000  0.0000  0.0000  Cs+     5     CS    1
      6     F   0.0000  0.0000  0.0000  F-      6     F    -1      
      7     CL  0.0000  0.0000  0.0000  Cl-     7     CL   -1      
      8     BR  0.0000  0.0000  0.0000  Br-     8     BR   -1
      9     I   0.0000  0.0000  0.0000  I-      9     I    -1       
     10     AG  0.0000  0.0000  0.0000  Ag+    10     AG    1
     11     CU  0.0000  0.0000  0.0000  Cu+    11     CU    1
     12     TL  0.0000  0.0000  0.0000  Tl+    12     TL    1
     13     BE2 0.0000  0.0000  0.0000  Be2+   13     BE2   2
     14     CU2 0.0000  0.0000  0.0000  Cu2+   14     CU2   2
     15     NI2 0.0000  0.0000  0.0000  Ni2+   15     NI2   2
     16     PT2 0.0000  0.0000  0.0000  Pt2+   16     PT2   2
     17     ZN2 0.0000  0.0000  0.0000  Zn2+   17     ZN2   2
     18     CO2 0.0000  0.0000  0.0000  Co2+   18     CO2   2
     19     PD2 0.0000  0.0000  0.0000  Pd2+   19     PD2   2
     20     AG2 0.0000  0.0000  0.0000  Ag2+   20     AG2   2
     21     CR2 0.0000  0.0000  0.0000  Cr2+   21     CR2   2
     22     FE2 0.0000  0.0000  0.0000  Fe2+   22     FE2   2
     23     MG2 0.0000  0.0000  0.0000  Mg2+   23     MG2   2
     24     V2  0.0000  0.0000  0.0000  V2+    24     V2    2
     25     MN2 0.0000  0.0000  0.0000  Mn2+   25     MN2   2
     26     HG2 0.0000  0.0000  0.0000  Hg2+   26     HG2   2
     27     CD2 0.0000  0.0000  0.0000  Cd2+   27     CD2   2
     28     YB2 0.0000  0.0000  0.0000  Yb2+   28     YB2   2
     29     CA2 0.0000  0.0000  0.0000  Ca2+   29     CA2   2
     30     SN2 0.0000  0.0000  0.0000  Sn2+   30     SN2   2
     31     PB2 0.0000  0.0000  0.0000  Pb2+   31     PB2   2   
     32     EU2 0.0000  0.0000  0.0000  Eu2+   32     EU2   2
     33     SR2 0.0000  0.0000  0.0000  Sr2+   33     SR2   2
     34     SM2 0.0000  0.0000  0.0000  Sm2+   34     SM2   2
     35     BA2 0.0000  0.0000  0.0000  Ba2+   35     BA2   2
     36     RA2 0.0000  0.0000  0.0000  Ra2+   36     RA2   2
     37     AL3 0.0000  0.0000  0.0000  Al3+   37     AL3   3
     38     FE3 0.0000  0.0000  0.0000  Fe3+   38     FE3   3
     39     CR3 0.0000  0.0000  0.0000  Cr3+   39     CR3   3
     40     IN3 0.0000  0.0000  0.0000  In3+   40     IN3   3
     41     TL3 0.0000  0.0000  0.0000  Tl3+   41     TL3   3
     42     Y3  0.0000  0.0000  0.0000  Y3+    42     Y3    3
     43     LA3 0.0000  0.0000  0.0000  La3+   43     LA3   3
     44     CE3 0.0000  0.0000  0.0000  Ce3+   44     CE3   3
     45     PR3 0.0000  0.0000  0.0000  Pr3+   45     PR3   3
     46     ND3 0.0000  0.0000  0.0000  Nd3+   46     ND3   3
     47     SM3 0.0000  0.0000  0.0000  Sm3+   47     SM3   3
     48     EU3 0.0000  0.0000  0.0000  Eu3+   48     EU3   3
     49     GD3 0.0000  0.0000  0.0000  Gd3+   49     GD3   3
     50     TB3 0.0000  0.0000  0.0000  Tb3+   50     TB3   3
     51     DY3 0.0000  0.0000  0.0000  Dy3+   51     DY3   3
     52     ER3 0.0000  0.0000  0.0000  Er3+   52     ER3   3
     53     TM3 0.0000  0.0000  0.0000  Tm3+   53     TM3   3
     54     LU3 0.0000  0.0000  0.0000  Lu3+   54     LU3   3
     55     HF4 0.0000  0.0000  0.0000  Hf4+   55     HF4   4
     56     ZR4 0.0000  0.0000  0.0000  Zr4+   56     ZR4   4
     57     CE4 0.0000  0.0000  0.0000  Ce4+   57     CE4   4
     58     U4  0.0000  0.0000  0.0000  U4+    58     U4    4
     59     PU4 0.0000  0.0000  0.0000  Pu4+   59     PU4   4
     60     TH4 0.0000  0.0000  0.0000  Th4+   60     TH4   4

@<TRIPOS>BOND


