@<TRIPOS>MOLECULE
DT5
  500   532    16     0     1 
SMALL
USER_CHARGES
@<TRIPOS>ATOM
  1 HO5'    1.866026    1.500000   -0.000001 HO    1 DT5     0.4422 ****
  2 O5'     1.958076    1.721055    0.929655 OH    1 DT5    -0.6318 ****
  3 C5'     0.788438    2.110876    1.673689 CI    1 DT5    -0.0069 ****
  4 H5'     0.059609    1.300555    1.656698 H1    1 DT5     0.0754 ****
  5 H5''    0.350939    3.001862    1.223312 H1    1 DT5     0.0754 ****
  6 C4'     1.165852    2.413322    3.114690 CT    1 DT5     0.1629 ****
  7 H4'     0.391898    3.029893    3.571785 H1    1 DT5     0.1176 ****
  8 O4'     1.142228    1.169997    3.879664 OS    1 DT5    -0.3691 ****
  9 C1'     2.468203    0.737932    4.147079 CT    1 DT5     0.0680 ****
 10 H1'     2.623230    0.684850    5.224692 H2    1 DT5     0.1804 ****
 11 N1      2.632954   -0.717027    3.703400 N*    1 DT5    -0.0239 ****
 12 C6      2.875704   -1.078951    2.404560 C2    1 DT5    -0.2209 ****
 13 H6      2.959033   -0.321303    1.639428 H4    1 DT5     0.2607 ****
 14 C5      3.067013   -2.361006    2.064952 C2    1 DT5     0.0025 ****
 15 C7      3.333432   -2.767553    0.645889 CT    1 DT5    -0.2269 ****
 16 H71     4.242255   -2.280543    0.292388 HC    1 DT5     0.0770 ****
 17 H72     3.457936   -3.849201    0.594542 HC    1 DT5     0.0770 ****
 18 H73     2.493979   -2.468758    0.018083 HC    1 DT5     0.0770 ****
 19 C4      3.022940   -3.401293    3.059668 C     1 DT5     0.5194 ****
 20 O4      3.186163   -4.600921    2.842522 O     1 DT5    -0.5563 ****
 21 N3      2.773361   -2.946917    4.338595 NA    1 DT5    -0.4340 ****
 22 H3      2.730570   -3.698396    5.126977 H     1 DT5     0.3420 ****
 23 C2      2.572586   -1.635486    4.718382 C     1 DT5     0.5677 ****
 24 O2      2.357491   -1.330167    5.879810 O     1 DT5    -0.5881 ****
 25 C3'     2.575663    2.966923    3.331156 CE    1 DT5     0.0713 ****
 26 H3'     2.881940    3.535798    2.453275 H1    1 DT5     0.0985 ****
 27 C2'     3.424930    1.698842    3.438933 CT    1 DT5    -0.0854 ****
 28 H2'     4.177812    1.697074    2.650729 HC    1 DT5     0.0718 ****
 29 H2''    3.917293    1.672208    4.411028 HC    1 DT5     0.0718 ****
 30 O3'     2.785632    3.721367    4.515693 OS    1 DT5    -0.5232 ****
 31 P       4.232664    4.348687    4.839217 P     2 DT      1.1659 ****
 32 OP1     5.208669    3.239685    4.928261 O2    2 DT     -0.7761 ****
 33 OP2     4.145812    5.073250    6.126799 O2    2 DT     -0.7761 ****
 34 O5'     4.483164    5.312494    3.586890 OS    2 DT     -0.4954 ****
 35 C5'     4.118738    4.855957    2.270696 CI    2 DT     -0.0069 ****
 36 H5'     3.050003    4.643604    2.242187 H1    2 DT      0.0754 ****
 37 H5''    4.675249    3.949373    2.032994 H1    2 DT      0.0754 ****
 38 C4'     4.443224    5.925890    1.240961 CT    2 DT      0.1629 ****
 39 H4'     4.506782    5.471801    0.252091 H1    2 DT      0.1176 ****
 40 O4'     3.315703    6.848726    1.147863 OS    2 DT     -0.3691 ****
 41 C1'     3.635948    8.074537    1.789135 CT    2 DT      0.0680 ****
 42 H1'     3.575932    8.889229    1.067488 H2    2 DT      0.1804 ****
 43 N1      2.541151    8.426951    2.798156 N*    2 DT     -0.0239 ****
 44 C6      2.484770    7.889825    4.057211 C2    2 DT     -0.2209 ****
 45 H6      3.235878    7.182616    4.376727 H4    2 DT      0.2607 ****
 46 C5      1.540027    8.264524    4.930515 C2    2 DT      0.0025 ****
 47 C7      1.469717    7.682507    6.311208 CT    2 DT     -0.2269 ****
 48 H71     2.396479    7.896110    6.843735 HC    2 DT      0.0770 ****
 49 H72     0.631537    8.124317    6.850057 HC    2 DT      0.0770 ****
 50 H73     1.329972    6.603559    6.244563 HC    2 DT      0.0770 ****
 51 C4      0.551354    9.247439    4.569956 C     2 DT      0.5194 ****
 52 O4     -0.350240    9.651826    5.302417 O     2 DT     -0.5563 ****
 53 N3      0.683627    9.733814    3.285299 NA    2 DT     -0.4340 ****
 54 H3     -0.042775   10.481166    2.966072 H     2 DT      0.3420 ****
 55 C2      1.644352    9.367845    2.364715 C     2 DT      0.5677 ****
 56 O2      1.680423    9.856092    1.247257 O     2 DT     -0.5881 ****
 57 C3'     5.641494    6.820163    1.565501 CE    2 DT      0.0713 ****
 58 H3'     6.363188    6.259912    2.159956 H1    2 DT      0.0985 ****
 59 C2'     5.018982    7.922344    2.424905 CT    2 DT     -0.0854 ****
 60 H2'     5.491186    7.928127    3.407295 HC    2 DT      0.0718 ****
 61 H2''    5.170887    8.888476    1.943642 HC    2 DT      0.0718 ****
 62 O3'     6.279938    7.449183    0.464082 OS    2 DT     -0.5232 ****
 63 P       7.550300    8.410673    0.696069 P     3 DT3     1.1659 ****
 64 OP1     7.130885    9.529326    1.569628 O2    3 DT3    -0.7761 ****
 65 OP2     7.995790    8.915362   -0.621971 O2    3 DT3    -0.7761 ****
 66 O5'     8.608336    7.430176    1.388301 OS    3 DT3    -0.4954 ****
 67 C5'     8.149875    6.504622    2.391676 CI    3 DT3    -0.0069 ****
 68 H5'     7.403440    5.838764    1.958585 H1    3 DT3     0.0754 ****
 69 H5''    7.706455    7.056595    3.220413 H1    3 DT3     0.0754 ****
 70 C4'     9.316350    5.678590    2.908792 CT    3 DT3     0.1629 ****
 71 H4'     9.058601    5.251908    3.878126 H1    3 DT3     0.1176 ****
 72 O4'     9.498746    4.521848    2.036854 OS    3 DT3    -0.3691 ****
 73 C1'    10.641806    4.707392    1.215035 CT    3 DT3     0.0680 ****
 74 H1'    11.360391    3.910322    1.405865 H2    3 DT3     0.1804 ****
 75 N1     10.261750    4.484862   -0.250208 N*    3 DT3    -0.0239 ****
 76 C6      9.665428    5.447234   -1.021661 C2    3 DT3    -0.2209 ****
 77 H6      9.442746    6.416166   -0.599779 H4    3 DT3     0.2607 ****
 78 C5      9.396568    5.231386   -2.316545 C2    3 DT3     0.0025 ****
 79 C7      8.743993    6.278460   -3.169646 CT    3 DT3    -0.2269 ****
 80 H71     9.369786    7.170611   -3.193095 HC    3 DT3     0.0770 ****
 81 H72     8.618899    5.896301   -4.182763 HC    3 DT3     0.0770 ****
 82 H73     7.768415    6.530425   -2.753882 HC    3 DT3     0.0770 ****
 83 C4      9.727952    3.975676   -2.938619 C     3 DT3     0.5194 ****
 84 O4      9.519911    3.688107   -4.116296 O     3 DT3    -0.5563 ****
 85 N3     10.324452    3.066641   -2.088770 NA    3 DT3    -0.4340 ****
 86 H3     10.594044    2.100151   -2.514583 H     3 DT3     0.3420 ****
 87 C2     10.613489    3.259875   -0.753286 C     3 DT3     0.5677 ****
 88 O2     11.144981    2.392108   -0.080311 O     3 DT3    -0.5881 ****
 89 C3'    10.678247    6.375822    2.906395 CE    3 DT3     0.0713 ****
 90 H3'    10.538367    7.447954    3.044469 H1    3 DT3     0.0985 ****
 91 C2'    11.194245    6.106893    1.491360 CT    3 DT3    -0.0854 ****
 92 H2'    11.361703    7.054263    0.978965 HC    3 DT3     0.0718 ****
 93 H2''   12.131376    5.552807    1.544982 HC    3 DT3     0.0718 ****
 94 O3'    11.648181    5.875725    3.814983 OH    3 DT3    -0.6549 ****
 95 HO3'   12.494103    6.329170    3.794890 HO    3 DT3     0.4396 ****
 96 HO5'    1.383446   -5.568257    1.468533 HO    4 DA5     0.4422 ****
 97 O5'     0.820499   -4.791403    1.434049 OH    4 DA5    -0.6318 ****
 98 C5'     0.246563   -4.400591    0.172517 CI    4 DA5    -0.0069 ****
 99 H5'    -0.378847   -5.207974   -0.208396 H1    4 DA5     0.0754 ****
100 H5''    1.043825   -4.191791   -0.540839 H1    4 DA5     0.0754 ****
101 C4'    -0.602727   -3.152840    0.352028 CT    4 DA5     0.1629 ****
102 H4'    -0.738263   -2.663120   -0.612287 H1    4 DA5     0.1176 ****
103 O4'    -1.948990   -3.551799    0.752040 OS    4 DA5    -0.3691 ****
104 C1'    -2.128669   -3.209940    2.278935 CT    4 DA5     0.0431 ****
105 H1'    -2.944748   -2.495989    2.390244 H2    4 DA5     0.1838 ****
106 N9     -2.615268   -4.412041    3.071763 N*    4 DA5    -0.0268 ****
107 C8     -1.940064   -5.488067    3.584761 C1    4 DA5     0.1607 ****
108 H8     -0.872431   -5.572206    3.445179 H5    4 DA5     0.1877 ****
109 N7     -2.687651   -6.302416    4.268828 NB    4 DA5    -0.6175 ****
110 C5     -3.952439   -5.729060    4.208200 CB    4 DA5     0.0725 ****
111 C6     -5.189813   -6.113035    4.738735 CA    4 DA5     0.6897 ****
112 N6     -5.368641   -7.220285    5.471961 N2    4 DA5    -0.9123 ****
113 H61    -6.285855   -7.446874    5.828996 H     4 DA5     0.4167 ****
114 H62    -4.586214   -7.828265    5.667583 H     4 DA5     0.4167 ****
115 N1     -6.240829   -5.319710    4.490543 NC    4 DA5    -0.7624 ****
116 C2     -6.057253   -4.222103    3.762217 CQ    4 DA5     0.5716 ****
117 H2     -6.890839   -3.568907    3.550396 H5    4 DA5     0.0598 ****
118 N3     -4.948556   -3.761130    3.213862 NC    4 DA5    -0.7417 ****
119 C4     -3.906998   -4.578049    3.479005 CB    4 DA5     0.3800 ****
120 C3'    -0.148071   -2.190947    1.451550 CE    4 DA5     0.0713 ****
121 H3'     0.935113   -2.303476    1.497909 H1    4 DA5     0.0985 ****
122 C2'    -0.778644   -2.674211    2.759118 CT    4 DA5    -0.0854 ****
123 H2'     0.007305   -2.913584    3.475418 HC    4 DA5     0.0718 ****
124 H2''   -1.415329   -1.889552    3.167826 HC    4 DA5     0.0718 ****
125 O3'    -0.503661   -0.826091    1.286856 OS    4 DA5    -0.5232 ****
126 P       0.000000    0.000000    0.000000 P     5 DA      1.1659 ****
127 OP1     1.480000    0.000000    0.000000 O2    5 DA     -0.7761 ****
128 OP2    -0.677868    1.315635    0.000000 O2    5 DA     -0.7761 ****
129 O5'    -0.425649   -0.902828   -1.250489 OS    5 DA     -0.4954 ****
130 C5'    -0.298129   -2.333917   -1.153931 CI    5 DA     -0.0069 ****
131 H5'    -0.913144   -2.699347   -0.331546 H1    5 DA      0.0754 ****
132 H5''    0.744288   -2.594815   -0.971181 H1    5 DA      0.0754 ****
133 C4'    -0.756655   -2.985231   -2.448514 CT    5 DA      0.1629 ****
134 H4'    -0.342129   -3.991036   -2.516511 H1    5 DA      0.1176 ****
135 O4'    -2.201235   -3.188275   -2.388843 OS    5 DA     -0.3691 ****
136 C1'    -2.860408   -2.240402   -3.215539 CT    5 DA      0.0431 ****
137 H1'    -3.432545   -2.762236   -3.982642 H2    5 DA      0.1838 ****
138 N9     -3.935761   -1.525456   -2.413749 N*    5 DA     -0.0268 ****
139 C8     -3.860352   -0.471743   -1.541452 C1    5 DA      0.1607 ****
140 H8     -2.906122   -0.011334   -1.331998 H5    5 DA      0.1877 ****
141 N7     -5.013030   -0.083731   -1.082343 NB    5 DA     -0.6175 ****
142 C5     -5.923098   -0.939617   -1.691713 CB    5 DA      0.0725 ****
143 C6     -7.317139   -1.044535   -1.616594 CA    5 DA      0.6897 ****
144 N6     -8.079264   -0.244456   -0.858544 N2    5 DA     -0.9123 ****
145 H61    -9.081673   -0.367215   -0.844090 H     5 DA      0.4167 ****
146 H62    -7.651295    0.481346   -0.301631 H     5 DA      0.4167 ****
147 N1     -7.904473   -2.001383   -2.348086 NC    5 DA     -0.7624 ****
148 C2     -7.142922   -2.792445   -3.098526 CQ    5 DA      0.5716 ****
149 H2     -7.595963   -3.569939   -3.695735 H5    5 DA      0.0598 ****
150 N3     -5.831520   -2.789071   -3.248903 NC    5 DA     -0.7417 ****
151 C4     -5.265853   -1.817013   -2.502160 CB    5 DA      0.3800 ****
152 C3'    -0.539883   -2.162819   -3.720343 CE    5 DA      0.0713 ****
153 H3'     0.335059   -1.524706   -3.596298 H1    5 DA      0.0985 ****
154 C2'    -1.798912   -1.295670   -3.781980 CT    5 DA     -0.0854 ****
155 H2'    -1.517488   -0.243026   -3.752977 HC    5 DA      0.0718 ****
156 H2''   -2.337778   -1.501816   -4.706765 HC    5 DA      0.0718 ****
157 O3'    -0.462798   -2.887910   -4.938827 OS    5 DA     -0.5232 ****
158 P      -0.236361   -2.118329   -6.334740 P     6 DA3     1.1659 ****
159 OP1    -1.362341   -1.178571   -6.533292 O2    6 DA3    -0.7761 ****
160 OP2    -0.199135   -3.125888   -7.418179 O2    6 DA3    -0.7761 ****
161 O5'     1.166777   -1.384516   -6.105133 OS    6 DA3    -0.4954 ****
162 C5'     1.430274   -0.764362   -4.832507 CI    6 DA3    -0.0069 ****
163 H5'     1.383342   -1.516208   -4.044709 H1    6 DA3     0.0754 ****
164 H5''    0.684350    0.007368   -4.642427 H1    6 DA3     0.0754 ****
165 C4'     2.812683   -0.132453   -4.838421 CT    6 DA3     0.1629 ****
166 H4'     2.873973    0.616067   -4.048445 H1    6 DA3     0.1176 ****
167 O4'     3.795571   -1.143907   -4.460938 OS    6 DA3    -0.3691 ****
168 C1'     4.527723   -1.561345   -5.603784 CT    6 DA3     0.0431 ****
169 H1'     5.586946   -1.352604   -5.453537 H2    6 DA3     0.1838 ****
170 N9      4.489207   -3.077280   -5.707977 N*    6 DA3    -0.0268 ****
171 C8      3.535494   -3.923413   -6.209366 C1    6 DA3     0.1607 ****
172 H8      2.621074   -3.522878   -6.621447 H5    6 DA3     0.1877 ****
173 N7      3.878280   -5.177194   -6.186361 NB    6 DA3    -0.6175 ****
174 C5      5.151955   -5.167425   -5.629802 CB    6 DA3     0.0725 ****
175 C6      6.062049   -6.189877   -5.335997 CA    6 DA3     0.6897 ****
176 N6      5.819609   -7.486354   -5.572576 N2    6 DA3    -0.9123 ****
177 H61     6.514861   -8.180870   -5.339391 H     6 DA3     0.4167 ****
178 H62     4.941625   -7.769036   -5.984076 H     6 DA3     0.4167 ****
179 N1      7.233120   -5.835670   -4.789434 NC    6 DA3    -0.7624 ****
180 C2      7.468113   -4.547408   -4.556931 CQ    6 DA3     0.5716 ****
181 H2      8.405448   -4.240277   -4.117075 H5    6 DA3     0.0598 ****
182 N3      6.694237   -3.503576   -4.789161 NC    6 DA3    -0.7417 ****
183 C4      5.522777   -3.888160   -5.338958 CB    6 DA3     0.3800 ****
184 C3'     3.301207    0.386766   -6.192178 CE    6 DA3     0.0713 ****
185 H3'     2.446774    0.703675   -6.790185 H1    6 DA3     0.0985 ****
186 C2'     3.933061   -0.855362   -6.823667 CT    6 DA3    -0.0854 ****
187 H2'     3.420051   -1.090387   -7.756235 HC    6 DA3     0.0718 ****
188 H2''    4.986622   -0.664032   -7.027389 HC    6 DA3     0.0718 ****
189 O3'     4.295076    1.400507   -6.161307 OH    6 DA3    -0.6549 ****
190 HO3'    4.585313    1.709851   -7.022508 HO    6 DA3     0.4396 ****
191 HO5'    1.383446   -5.568257    1.468532 HO    7 DG5     0.4422 ****
192 O5'     0.820500   -4.791403    1.434048 OH    7 DG5    -0.6318 ****
193 C5'     0.246564   -4.400590    0.172517 CI    7 DG5    -0.0069 ****
194 H5'    -0.378849   -5.207973   -0.208395 H1    7 DG5     0.0754 ****
195 H5''    1.043826   -4.191793   -0.540840 H1    7 DG5     0.0754 ****
196 C4'    -0.602727   -3.152840    0.352028 CT    7 DG5     0.1629 ****
197 H4'    -0.738263   -2.663119   -0.612287 H1    7 DG5     0.1176 ****
198 O4'    -1.948989   -3.551799    0.752040 OS    7 DG5    -0.3691 ****
199 C1'    -2.128668   -3.209941    2.278936 CT    7 DG5     0.0358 ****
200 H1'    -2.944748   -2.495991    2.390244 H2    7 DG5     0.1746 ****
201 N9     -2.605990   -4.409658    3.022538 N*    7 DG5     0.0577 ****
202 C8     -1.883853   -5.484531    3.499577 CK    7 DG5     0.0736 ****
203 H8     -0.815463   -5.527490    3.347603 H5    7 DG5     0.1997 ****
204 N7     -2.610794   -6.383749    4.115258 NB    7 DG5    -0.5725 ****
205 C5     -3.902344   -5.874911    4.043970 CB    7 DG5     0.1991 ****
206 C6     -5.127009   -6.400652    4.534063 C     7 DG5     0.4918 ****
207 O6     -5.325714   -7.448848    5.146192 O     7 DG5    -0.5699 ****
208 N1     -6.200924   -5.552165    4.239485 NA    7 DG5    -0.5053 ****
209 H1     -7.109534   -5.838225    4.543782 H     7 DG5     0.3520 ****
210 C2     -6.106029   -4.353070    3.563049 CA    7 DG5     0.7432 ****
211 N2     -7.255067   -3.687926    3.381680 N2    7 DG5    -0.9230 ****
212 H21    -8.177227   -3.976150    3.676042 H     7 DG5     0.4235 ****
213 H22    -7.195755   -2.813463    2.879787 H     7 DG5     0.4235 ****
214 N3     -4.957780   -3.861091    3.106560 NC    7 DG5    -0.6636 ****
215 C4     -3.903636   -4.674099    3.384765 CB    7 DG5     0.1814 ****
216 C3'    -0.148071   -2.190947    1.451550 CE    7 DG5     0.0713 ****
217 H3'     0.935113   -2.303475    1.497909 H1    7 DG5     0.0985 ****
218 C2'    -0.778644   -2.674212    2.759118 CT    7 DG5    -0.0854 ****
219 H2'     0.007306   -2.913584    3.475416 HC    7 DG5     0.0718 ****
220 H2''   -1.415328   -1.889553    3.167826 HC    7 DG5     0.0718 ****
221 O3'    -0.503661   -0.826091    1.286856 OS    7 DG5    -0.5232 ****
222 P       0.000000    0.000000    0.000000 P     8 DG      1.1659 ****
223 OP1     1.480000    0.000000    0.000000 O2    8 DG     -0.7761 ****
224 OP2    -0.677868    1.315635    0.000000 O2    8 DG     -0.7761 ****
225 O5'    -0.425649   -0.902828   -1.250489 OS    8 DG     -0.4954 ****
226 C5'    -0.298129   -2.333917   -1.153931 CI    8 DG     -0.0069 ****
227 H5'    -0.913144   -2.699347   -0.331546 H1    8 DG      0.0754 ****
228 H5''    0.744288   -2.594815   -0.971181 H1    8 DG      0.0754 ****
229 C4'    -0.756655   -2.985231   -2.448514 CT    8 DG      0.1629 ****
230 H4'    -0.342129   -3.991036   -2.516511 H1    8 DG      0.1176 ****
231 O4'    -2.201235   -3.188275   -2.388843 OS    8 DG     -0.3691 ****
232 C1'    -2.860408   -2.240402   -3.215539 CT    8 DG      0.0358 ****
233 H1'    -3.432545   -2.762236   -3.982642 H2    8 DG      0.1746 ****
234 N9     -3.904575   -1.561345   -2.397801 N*    8 DG      0.0577 ****
235 C8     -3.772285   -0.512948   -1.510241 CK    8 DG      0.0736 ****
236 H8     -2.801592   -0.073238   -1.334706 H5    8 DG      0.1997 ****
237 N7     -4.896656   -0.147215   -0.946211 NB    8 DG     -0.5725 ****
238 C5     -5.840465   -1.008351   -1.493725 CB    8 DG      0.1991 ****
239 C6     -7.239808   -1.101707   -1.271183 C     8 DG      0.4918 ****
240 O6     -7.948583   -0.426189   -0.526728 O     8 DG     -0.5699 ****
241 N1     -7.811757   -2.122861   -2.039375 NA    8 DG     -0.5053 ****
242 H1     -8.797110   -2.268177   -1.950140 H     8 DG      0.3520 ****
243 C2     -7.124855   -2.944649   -2.909564 CA    8 DG      0.7432 ****
244 N2     -7.858035   -3.863504   -3.552800 N2    8 DG     -0.9230 ****
245 H21    -8.850895   -4.023322   -3.459060 H     8 DG      0.4235 ****
246 H22    -7.361575   -4.474904   -4.185112 H     8 DG      0.4235 ****
247 N3     -5.814456   -2.854402   -3.118399 NC    8 DG     -0.6636 ****
248 C4     -5.243117   -1.866262   -2.378972 CB    8 DG      0.1814 ****
249 C3'    -0.539883   -2.162819   -3.720343 CE    8 DG      0.0713 ****
250 H3'     0.335059   -1.524706   -3.596298 H1    8 DG      0.0985 ****
251 C2'    -1.798912   -1.295670   -3.781980 CT    8 DG     -0.0854 ****
252 H2'    -1.517488   -0.243026   -3.752977 HC    8 DG      0.0718 ****
253 H2''   -2.337778   -1.501816   -4.706765 HC    8 DG      0.0718 ****
254 O3'    -0.462798   -2.887910   -4.938827 OS    8 DG     -0.5232 ****
255 P      -0.236361   -2.118329   -6.334740 P     9 DG3     1.1659 ****
256 OP1    -1.362341   -1.178571   -6.533292 O2    9 DG3    -0.7761 ****
257 OP2    -0.199135   -3.125888   -7.418179 O2    9 DG3    -0.7761 ****
258 O5'     1.166777   -1.384516   -6.105133 OS    9 DG3    -0.4954 ****
259 C5'     1.430274   -0.764362   -4.832507 CI    9 DG3    -0.0069 ****
260 H5'     1.383342   -1.516208   -4.044709 H1    9 DG3     0.0754 ****
261 H5''    0.684350    0.007368   -4.642427 H1    9 DG3     0.0754 ****
262 C4'     2.812683   -0.132453   -4.838421 CT    9 DG3     0.1629 ****
263 H4'     2.873973    0.616067   -4.048445 H1    9 DG3     0.1176 ****
264 O4'     3.795571   -1.143907   -4.460938 OS    9 DG3    -0.3691 ****
265 C1'     4.527723   -1.561345   -5.603784 CT    9 DG3     0.0358 ****
266 H1'     5.586946   -1.352604   -5.453537 H2    9 DG3     0.1746 ****
267 N9      4.467849   -3.048537   -5.672869 N*    9 DG3     0.0577 ****
268 C8      3.467221   -3.859051   -6.169065 CK    9 DG3     0.0736 ****
269 H8      2.571053   -3.419572   -6.581550 H5    9 DG3     0.1997 ****
270 N7      3.725644   -5.140176   -6.079418 NB    9 DG3    -0.5725 ****
271 C5      4.980980   -5.186760   -5.484386 CB    9 DG3     0.1991 ****
272 C6      5.790219   -6.298087   -5.128738 C     9 DG3     0.4918 ****
273 O6      5.557571   -7.497568   -5.270224 O     9 DG3    -0.5699 ****
274 N1      6.994810   -5.886568   -4.545973 NA    9 DG3    -0.5053 ****
275 H1      7.633952   -6.600160   -4.259125 H     9 DG3     0.3520 ****
276 C2      7.370650   -4.575477   -4.335770 CA    9 DG3     0.7432 ****
277 N2      8.567635   -4.391849   -3.762090 N2    9 DG3    -0.9230 ****
278 H21     9.212908   -5.107543   -3.459591 H     9 DG3     0.4235 ****
279 H22     8.846651   -3.435353   -3.596664 H     9 DG3     0.4235 ****
280 N3      6.612329   -3.535692   -4.671474 NC    9 DG3    -0.6636 ****
281 C4      5.437433   -3.918632   -5.239432 CB    9 DG3     0.1814 ****
282 C3'     3.301207    0.386766   -6.192178 CE    9 DG3     0.0713 ****
283 H3'     2.446774    0.703675   -6.790185 H1    9 DG3     0.0985 ****
284 C2'     3.933061   -0.855362   -6.823667 CT    9 DG3    -0.0854 ****
285 H2'     3.420051   -1.090387   -7.756235 HC    9 DG3     0.0718 ****
286 H2''    4.986622   -0.664032   -7.027389 HC    9 DG3     0.0718 ****
287 O3'     4.295076    1.400507   -6.161307 OH    9 DG3    -0.6549 ****
288 HO3'    4.585313    1.709851   -7.022508 HO    9 DG3     0.4396 ****
289 HO5'    1.383446   -5.568257    1.468532 HO   10 DC5     0.4422 ****
290 O5'     0.820500   -4.791403    1.434048 OH   10 DC5    -0.6318 ****
291 C5'     0.246564   -4.400590    0.172517 CI   10 DC5    -0.0069 ****
292 H5'    -0.378849   -5.207973   -0.208395 H1   10 DC5     0.0754 ****
293 H5''    1.043826   -4.191793   -0.540840 H1   10 DC5     0.0754 ****
294 C4'    -0.602727   -3.152840    0.352028 CT   10 DC5     0.1629 ****
295 H4'    -0.738263   -2.663119   -0.612287 H1   10 DC5     0.1176 ****
296 O4'    -1.948989   -3.551799    0.752040 OS   10 DC5    -0.3691 ****
297 C1'    -2.128668   -3.209941    2.278936 CT   10 DC5    -0.0116 ****
298 H1'    -2.944748   -2.495991    2.390244 H2   10 DC5     0.1963 ****
299 N1     -2.605985   -4.409111    3.023422 N*   10 DC5    -0.0339 ****
300 C6     -1.740453   -5.380304    3.419953 CM   10 DC5    -0.0183 ****
301 H6     -0.687790   -5.289735    3.196128 H4   10 DC5     0.2293 ****
302 C5     -2.178347   -6.474019    4.099390 CM   10 DC5    -0.5222 ****
303 H5     -1.470334   -7.242598    4.409396 HA   10 DC5     0.1863 ****
304 C4     -3.580236   -6.548117    4.371640 CA   10 DC5     0.8439 ****
305 N4     -4.073551   -7.582227    5.027122 N2   10 DC5    -0.9773 ****
306 H41    -5.068593   -7.597487    5.199632 H    10 DC5     0.4314 ****
307 H42    -3.464359   -8.324971    5.339075 H    10 DC5     0.4314 ****
308 N3     -4.419619   -5.593644    3.980082 NC   10 DC5    -0.7748 ****
309 C2     -3.961788   -4.507536    3.301583 C    10 DC5     0.7959 ****
310 O2     -4.712594   -3.597414    2.920048 O    10 DC5    -0.6548 ****
311 C3'    -0.148071   -2.190947    1.451550 CE   10 DC5     0.0713 ****
312 H3'     0.935113   -2.303475    1.497909 H1   10 DC5     0.0985 ****
313 C2'    -0.778644   -2.674212    2.759118 CT   10 DC5    -0.0854 ****
314 H2'     0.007306   -2.913584    3.475416 HC   10 DC5     0.0718 ****
315 H2''   -1.415328   -1.889553    3.167826 HC   10 DC5     0.0718 ****
316 O3'    -0.503661   -0.826091    1.286856 OS   10 DC5    -0.5232 ****
317 P       0.000000    0.000000    0.000000 P    11 DC      1.1659 ****
318 OP1     1.480000    0.000000    0.000000 O2   11 DC     -0.7761 ****
319 OP2    -0.677868    1.315635    0.000000 O2   11 DC     -0.7761 ****
320 O5'    -0.425649   -0.902828   -1.250489 OS   11 DC     -0.4954 ****
321 C5'    -0.298129   -2.333917   -1.153931 CI   11 DC     -0.0069 ****
322 H5'    -0.913144   -2.699347   -0.331546 H1   11 DC      0.0754 ****
323 H5''    0.744288   -2.594815   -0.971181 H1   11 DC      0.0754 ****
324 C4'    -0.756655   -2.985231   -2.448514 CT   11 DC      0.1629 ****
325 H4'    -0.342129   -3.991036   -2.516511 H1   11 DC      0.1176 ****
326 O4'    -2.201235   -3.188275   -2.388843 OS   11 DC     -0.3691 ****
327 C1'    -2.860408   -2.240402   -3.215539 CT   11 DC     -0.0116 ****
328 H1'    -3.432545   -2.762236   -3.982642 H2   11 DC      0.1963 ****
329 N1     -3.904845   -1.560769   -2.398625 N*   11 DC     -0.0339 ****
330 C6     -3.587714   -0.531511   -1.568169 CM   11 DC     -0.0183 ****
331 H6     -2.564558   -0.194068   -1.492777 H4   11 DC      0.2293 ****
332 C5     -4.542674    0.087378   -0.823436 CM   11 DC     -0.5222 ****
333 H5     -4.270293    0.910725   -0.163127 HA   11 DC      0.1863 ****
334 C4     -5.881948   -0.395461   -0.958025 CA   11 DC      0.8439 ****
335 N4     -6.858509    0.159381   -0.264573 N2   11 DC     -0.9773 ****
336 H41    -7.790394   -0.210174   -0.387537 H    11 DC      0.4314 ****
337 H42    -6.664967    0.926362    0.363426 H    11 DC      0.4314 ****
338 N3     -6.183172   -1.402696   -1.772667 NC   11 DC     -0.7748 ****
339 C2     -5.213508   -2.008492   -2.509119 C    11 DC      0.7959 ****
340 O2     -5.454689   -2.949965   -3.279223 O    11 DC     -0.6548 ****
341 C3'    -0.539883   -2.162819   -3.720343 CE   11 DC      0.0713 ****
342 H3'     0.335059   -1.524706   -3.596298 H1   11 DC      0.0985 ****
343 C2'    -1.798912   -1.295670   -3.781980 CT   11 DC     -0.0854 ****
344 H2'    -1.517488   -0.243026   -3.752977 HC   11 DC      0.0718 ****
345 H2''   -2.337778   -1.501816   -4.706765 HC   11 DC      0.0718 ****
346 O3'    -0.462798   -2.887910   -4.938827 OS   11 DC     -0.5232 ****
347 P      -0.236361   -2.118329   -6.334740 P    12 DC3     1.1659 ****
348 OP1    -1.362341   -1.178571   -6.533292 O2   12 DC3    -0.7761 ****
349 OP2    -0.199135   -3.125888   -7.418179 O2   12 DC3    -0.7761 ****
350 O5'     1.166777   -1.384516   -6.105133 OS   12 DC3    -0.4954 ****
351 C5'     1.430274   -0.764362   -4.832507 CI   12 DC3    -0.0069 ****
352 H5'     1.383342   -1.516208   -4.044709 H1   12 DC3     0.0754 ****
353 H5''    0.684350    0.007368   -4.642427 H1   12 DC3     0.0754 ****
354 C4'     2.812683   -0.132453   -4.838421 CT   12 DC3     0.1629 ****
355 H4'     2.873973    0.616067   -4.048445 H1   12 DC3     0.1176 ****
356 O4'     3.795571   -1.143907   -4.460938 OS   12 DC3    -0.3691 ****
357 C1'     4.527723   -1.561345   -5.603784 CT   12 DC3    -0.0116 ****
358 H1'     5.586946   -1.352604   -5.453537 H2   12 DC3     0.1963 ****
359 N1      4.468427   -3.048520   -5.673734 N*   12 DC3    -0.0339 ****
360 C6      3.389020   -3.684409   -6.203003 CM   12 DC3    -0.0183 ****
361 H6      2.556094   -3.110464   -6.581450 H4   12 DC3     0.2293 ****
362 C5      3.337040   -5.041962   -6.265836 CM   12 DC3    -0.5222 ****
363 H5      2.463836   -5.534722   -6.693390 HA   12 DC3     0.1863 ****
364 C4      4.463844   -5.757032   -5.752134 CA   12 DC3     0.8439 ****
365 N4      4.480007   -7.076603   -5.781618 N2   12 DC3    -0.9773 ****
366 H41     5.293883   -7.544599   -5.409211 H    12 DC3     0.4314 ****
367 H42     3.697951   -7.586866   -6.166482 H    12 DC3     0.4314 ****
368 N3      5.515402   -5.126983   -5.236223 NC   12 DC3    -0.7748 ****
369 C2      5.548089   -3.768438   -5.182502 C    12 DC3     0.7959 ****
370 O2      6.509951   -3.145156   -4.709277 O    12 DC3    -0.6548 ****
371 C3'     3.301207    0.386766   -6.192178 CE   12 DC3     0.0713 ****
372 H3'     2.446774    0.703675   -6.790185 H1   12 DC3     0.0985 ****
373 C2'     3.933061   -0.855362   -6.823667 CT   12 DC3    -0.0854 ****
374 H2'     3.420051   -1.090387   -7.756235 HC   12 DC3     0.0718 ****
375 H2''    4.986622   -0.664032   -7.027389 HC   12 DC3     0.0718 ****
376 O3'     4.295076    1.400507   -6.161307 OH   12 DC3    -0.6549 ****
377 HO3'    4.585313    1.709851   -7.022508 HO   12 DC3     0.4396 ****
378 HO5'    1.866026    1.500000   -0.000001 HO   13 DTN     0.4422 ****
379 O5'     1.958076    1.721055    0.929655 OH   13 DTN    -0.6318 ****
380 C5'     0.788438    2.110876    1.673689 CI   13 DTN    -0.0069 ****
381 H5'     0.059609    1.300555    1.656698 H1   13 DTN     0.0754 ****
382 H5''    0.350939    3.001862    1.223312 H1   13 DTN     0.0754 ****
383 C4'     1.165852    2.413322    3.114690 CT   13 DTN     0.1629 ****
384 H4'     0.391898    3.029893    3.571785 H1   13 DTN     0.1176 ****
385 O4'     1.142228    1.169997    3.879664 OS   13 DTN    -0.3691 ****
386 C1'     2.468203    0.737932    4.147079 CT   13 DTN     0.0680 ****
387 H1'     2.623230    0.684850    5.224692 H2   13 DTN     0.1804 ****
388 N1      2.632954   -0.717027    3.703400 N*   13 DTN    -0.0239 ****
389 C6      2.875704   -1.078951    2.404560 C2   13 DTN    -0.2209 ****
390 H6      2.959033   -0.321303    1.639428 H4   13 DTN     0.2607 ****
391 C5      3.067013   -2.361006    2.064952 C2   13 DTN     0.0025 ****
392 C7      3.333432   -2.767553    0.645889 CT   13 DTN    -0.2269 ****
393 H71     4.242255   -2.280543    0.292388 HC   13 DTN     0.0770 ****
394 H72     3.457936   -3.849201    0.594542 HC   13 DTN     0.0770 ****
395 H73     2.493979   -2.468758    0.018083 HC   13 DTN     0.0770 ****
396 C4      3.022940   -3.401293    3.059668 C    13 DTN     0.5194 ****
397 O4      3.186163   -4.600921    2.842522 O    13 DTN    -0.5563 ****
398 N3      2.773361   -2.946917    4.338595 NA   13 DTN    -0.4340 ****
399 H3      2.730570   -3.698396    5.126977 H    13 DTN     0.3420 ****
400 C2      2.572586   -1.635486    4.718382 C    13 DTN     0.5677 ****
401 O2      2.357491   -1.330167    5.879810 O    13 DTN    -0.5881 ****
402 C3'     2.575663    2.966923    3.331156 CE   13 DTN     0.0713 ****
403 H3'     2.881940    3.535798    2.453275 H1   13 DTN     0.0985 ****
404 C2'     3.424930    1.698842    3.438933 CT   13 DTN    -0.0854 ****
405 H2'     4.177812    1.697074    2.650729 HC   13 DTN     0.0718 ****
406 H2''    3.917293    1.672208    4.411028 HC   13 DTN     0.0718 ****
407 O3'     2.785632    3.721367    4.515693 OH   13 DTN    -0.6549 ****
408 HO3'    3.677545    4.057868    4.629089 HO   13 DTN     0.4396 ****
409 HO5'    1.866026    1.500000   -0.000001 HO   14 DAN     0.4422 ****
410 O5'     1.958076    1.721055    0.929655 OH   14 DAN    -0.6318 ****
411 C5'     0.788438    2.110876    1.673689 CI   14 DAN    -0.0069 ****
412 H5'     0.059609    1.300555    1.656698 H1   14 DAN     0.0754 ****
413 H5''    0.350939    3.001862    1.223312 H1   14 DAN     0.0754 ****
414 C4'     1.165852    2.413326    3.114689 CT   14 DAN     0.1629 ****
415 H4'     0.391898    3.029897    3.571783 H1   14 DAN     0.1176 ****
416 O4'     1.142231    1.170002    3.879666 OS   14 DAN    -0.3691 ****
417 C1'     2.468206    0.737940    4.147081 CT   14 DAN     0.0431 ****
418 H1'     2.623235    0.684861    5.224694 H2   14 DAN     0.1838 ****
419 N9      2.631883   -0.707510    3.706304 N*   14 DAN    -0.0268 ****
420 C8      2.874744   -1.252950    2.473254 C1   14 DAN     0.1607 ****
421 H8      2.981762   -0.611824    1.610754 H5   14 DAN     0.1877 ****
422 N7      3.015090   -2.545282    2.486686 NB   14 DAN    -0.6175 ****
423 C5      2.854438   -2.887092    3.824392 CB   14 DAN     0.0725 ****
424 C6      2.890064   -4.114821    4.496265 CA   14 DAN     0.6897 ****
425 N6      3.109811   -5.286601    3.884511 N2   14 DAN    -0.9123 ****
426 H61     3.124377   -6.141797    4.421657 H    14 DAN     0.4167 ****
427 H62     3.260876   -5.314613    2.886265 H    14 DAN     0.4167 ****
428 N1      2.691907   -4.099278    5.821441 NC   14 DAN    -0.7624 ****
429 C2      2.474289   -2.933294    6.423125 CQ   14 DAN     0.5716 ****
430 H2      2.312233   -2.898286    7.490323 H5   14 DAN     0.0598 ****
431 N3      2.418510   -1.722694    5.899928 NC   14 DAN    -0.7417 ****
432 C4      2.621154   -1.767152    4.565964 CB   14 DAN     0.3800 ****
433 C3'     2.575663    2.966930    3.331153 CE   14 DAN     0.0713 ****
434 H3'     2.881938    3.535803    2.453270 H1   14 DAN     0.0985 ****
435 C2'     3.424932    1.698850    3.438932 CT   14 DAN    -0.0854 ****
436 H2'     4.177814    1.697080    2.650727 HC   14 DAN     0.0718 ****
437 H2''    3.917296    1.672219    4.411027 HC   14 DAN     0.0718 ****
438 O3'     2.785632    3.721376    4.515688 OH   14 DAN    -0.6549 ****
439 HO3'    3.677544    4.057879    4.629083 HO   14 DAN     0.4396 ****
440 HO5'    1.866026    1.500000   -0.000001 HO   15 DGN     0.4422 ****
441 O5'     1.958076    1.721055    0.929655 OH   15 DGN    -0.6318 ****
442 C5'     0.788438    2.110876    1.673689 CI   15 DGN    -0.0069 ****
443 H5'     0.059609    1.300555    1.656698 H1   15 DGN     0.0754 ****
444 H5''    0.350939    3.001862    1.223312 H1   15 DGN     0.0754 ****
445 C4'     1.165852    2.413322    3.114690 CT   15 DGN     0.1629 ****
446 H4'     0.391898    3.029893    3.571785 H1   15 DGN     0.1176 ****
447 O4'     1.142228    1.169997    3.879664 OS   15 DGN    -0.3691 ****
448 C1'     2.468203    0.737932    4.147079 CT   15 DGN     0.0358 ****
449 H1'     2.623230    0.684850    5.224692 H2   15 DGN     0.1746 ****
450 N9      2.590683   -0.679099    3.703095 N*   15 DGN     0.0577 ****
451 C8      2.813129   -1.180191    2.436673 CK   15 DGN     0.0736 ****
452 H8      2.923923   -0.505431    1.600717 H5   15 DGN     0.1997 ****
453 N7      2.866570   -2.487996    2.382915 NB   15 DGN    -0.5725 ****
454 C5      2.666619   -2.884785    3.699987 CB   15 DGN     0.1991 ****
455 C6      2.618174   -4.183247    4.272741 C    15 DGN     0.4918 ****
456 O6      2.745116   -5.274679    3.719964 O    15 DGN    -0.5699 ****
457 N1      2.392360   -4.124070    5.653142 NA   15 DGN    -0.5053 ****
458 H1      2.340247   -4.991530    6.147911 H    15 DGN     0.3520 ****
459 C2      2.235990   -2.964893    6.385439 CA   15 DGN     0.7432 ****
460 N2      2.027970   -3.123384    7.699672 N2   15 DGN    -0.9230 ****
461 H21     1.962798   -3.996108    8.203861 H    15 DGN     0.4235 ****
462 H22     1.903763   -2.280230    8.241672 H    15 DGN     0.4235 ****
463 N3      2.283792   -1.749405    5.847662 NC   15 DGN    -0.6636 ****
464 C4      2.502700   -1.789344    4.505990 CB   15 DGN     0.1814 ****
465 C3'     2.575663    2.966923    3.331156 CE   15 DGN     0.0713 ****
466 H3'     2.881940    3.535798    2.453275 H1   15 DGN     0.0985 ****
467 C2'     3.424930    1.698842    3.438933 CT   15 DGN    -0.0854 ****
468 H2'     4.177812    1.697074    2.650729 HC   15 DGN     0.0718 ****
469 H2''    3.917293    1.672208    4.411028 HC   15 DGN     0.0718 ****
470 O3'     2.785632    3.721367    4.515693 OH   15 DGN    -0.6549 ****
471 HO3'    3.677545    4.057868    4.629089 HO   15 DGN     0.4396 ****
472 HO5'    1.866026    1.500000   -0.000001 HO   16 DCN     0.4422 ****
473 O5'     1.958076    1.721055    0.929655 OH   16 DCN    -0.6318 ****
474 C5'     0.788438    2.110876    1.673689 CI   16 DCN    -0.0069 ****
475 H5'     0.059609    1.300555    1.656698 H1   16 DCN     0.0754 ****
476 H5''    0.350939    3.001862    1.223312 H1   16 DCN     0.0754 ****
477 C4'     1.165852    2.413322    3.114690 CT   16 DCN     0.1629 ****
478 H4'     0.391898    3.029893    3.571785 H1   16 DCN     0.1176 ****
479 O4'     1.142228    1.169997    3.879664 OS   16 DCN    -0.3691 ****
480 C1'     2.468203    0.737932    4.147079 CT   16 DCN    -0.0116 ****
481 H1'     2.623230    0.684850    5.224692 H2   16 DCN     0.1963 ****
482 N1      2.591677   -0.679109    3.703402 N*   16 DCN    -0.0339 ****
483 C6      2.814056   -0.989712    2.398154 CM   16 DCN    -0.0183 ****
484 H6      2.904093   -0.203076    1.663650 H4   16 DCN     0.2293 ****
485 C5      2.926421   -2.283845    1.995422 CM   16 DCN    -0.5222 ****
486 H5      3.104661   -2.514239    0.945065 HA   16 DCN     0.1863 ****
487 C4      2.799912   -3.288859    3.004800 CA   16 DCN     0.8439 ****
488 N4      2.898406   -4.565468    2.683913 N2   16 DCN    -0.9773 ****
489 H41     2.803314   -5.244631    3.425395 H    16 DCN     0.4314 ****
490 H42     3.063322   -4.838270    1.725539 H    16 DCN     0.4314 ****
491 N3      2.582461   -2.976084    4.279079 NC   16 DCN    -0.7748 ****
492 C2      2.473124   -1.675589    4.661648 C    16 DCN     0.7959 ****
493 O2      2.270624   -1.344208    5.839264 O    16 DCN    -0.6548 ****
494 C3'     2.575663    2.966923    3.331156 CE   16 DCN     0.0713 ****
495 H3'     2.881940    3.535798    2.453275 H1   16 DCN     0.0985 ****
496 C2'     3.424930    1.698842    3.438933 CT   16 DCN    -0.0854 ****
497 H2'     4.177812    1.697074    2.650729 HC   16 DCN     0.0718 ****
498 H2''    3.917293    1.672208    4.411028 HC   16 DCN     0.0718 ****
499 O3'     2.785632    3.721367    4.515693 OH   16 DCN    -0.6549 ****
500 HO3'    3.677545    4.057868    4.629089 HO   16 DCN     0.4396 ****
@<TRIPOS>BOND
    1    30    31 1
    2    27    28 1
    3    27    29 1
    4    25    26 1
    5    25    27 1
    6    25    30 1
    7    23    24 1
    8    21    22 1
    9    21    23 1
   10    19    20 1
   11    19    21 1
   12    15    16 1
   13    15    17 1
   14    15    18 1
   15    14    15 1
   16    14    19 1
   17    12    13 1
   18    12    14 1
   19    11    12 1
   20    11    23 1
   21     9    10 1
   22     9    11 1
   23     9    27 1
   24     8     9 1
   25     6     7 1
   26     6     8 1
   27     6    25 1
   28     3     4 1
   29     3     5 1
   30     3     6 1
   31     2     3 1
   32     1     2 1
   33    62    63 1
   34    59    60 1
   35    59    61 1
   36    57    58 1
   37    57    59 1
   38    57    62 1
   39    55    56 1
   40    53    54 1
   41    53    55 1
   42    51    52 1
   43    51    53 1
   44    47    48 1
   45    47    49 1
   46    47    50 1
   47    46    47 1
   48    46    51 1
   49    44    45 1
   50    44    46 1
   51    43    44 1
   52    43    55 1
   53    41    42 1
   54    41    43 1
   55    41    59 1
   56    40    41 1
   57    38    39 1
   58    38    40 1
   59    38    57 1
   60    35    36 1
   61    35    37 1
   62    35    38 1
   63    34    35 1
   64    31    32 1
   65    31    33 1
   66    31    34 1
   67    94    95 1
   68    91    92 1
   69    91    93 1
   70    89    90 1
   71    89    91 1
   72    89    94 1
   73    87    88 1
   74    85    86 1
   75    85    87 1
   76    83    84 1
   77    83    85 1
   78    79    80 1
   79    79    81 1
   80    79    82 1
   81    78    79 1
   82    78    83 1
   83    76    77 1
   84    76    78 1
   85    75    76 1
   86    75    87 1
   87    73    74 1
   88    73    75 1
   89    73    91 1
   90    72    73 1
   91    70    71 1
   92    70    72 1
   93    70    89 1
   94    67    68 1
   95    67    69 1
   96    67    70 1
   97    66    67 1
   98    63    64 1
   99    63    65 1
  100    63    66 1
  101   125   126 1
  102   122   123 1
  103   122   124 1
  104   120   121 1
  105   120   122 1
  106   120   125 1
  107   118   119 1
  108   116   117 1
  109   116   118 1
  110   115   116 1
  111   112   113 1
  112   112   114 1
  113   111   112 1
  114   111   115 1
  115   110   111 1
  116   110   119 1
  117   109   110 1
  118   107   108 1
  119   107   109 1
  120   106   107 1
  121   106   119 1
  122   104   105 1
  123   104   106 1
  124   104   122 1
  125   103   104 1
  126   101   102 1
  127   101   103 1
  128   101   120 1
  129    98    99 1
  130    98   100 1
  131    98   101 1
  132    97    98 1
  133    96    97 1
  134   157   158 1
  135   154   155 1
  136   154   156 1
  137   152   153 1
  138   152   154 1
  139   152   157 1
  140   150   151 1
  141   148   149 1
  142   148   150 1
  143   147   148 1
  144   144   145 1
  145   144   146 1
  146   143   144 1
  147   143   147 1
  148   142   143 1
  149   142   151 1
  150   141   142 1
  151   139   140 1
  152   139   141 1
  153   138   139 1
  154   138   151 1
  155   136   137 1
  156   136   138 1
  157   136   154 1
  158   135   136 1
  159   133   134 1
  160   133   135 1
  161   133   152 1
  162   130   131 1
  163   130   132 1
  164   130   133 1
  165   129   130 1
  166   126   127 1
  167   126   128 1
  168   126   129 1
  169   189   190 1
  170   186   187 1
  171   186   188 1
  172   184   185 1
  173   184   186 1
  174   184   189 1
  175   182   183 1
  176   180   181 1
  177   180   182 1
  178   179   180 1
  179   176   177 1
  180   176   178 1
  181   175   176 1
  182   175   179 1
  183   174   175 1
  184   174   183 1
  185   173   174 1
  186   171   172 1
  187   171   173 1
  188   170   171 1
  189   170   183 1
  190   168   169 1
  191   168   170 1
  192   168   186 1
  193   167   168 1
  194   165   166 1
  195   165   167 1
  196   165   184 1
  197   162   163 1
  198   162   164 1
  199   162   165 1
  200   161   162 1
  201   158   159 1
  202   158   160 1
  203   158   161 1
  204   221   222 1
  205   218   219 1
  206   218   220 1
  207   216   217 1
  208   216   218 1
  209   216   221 1
  210   214   215 1
  211   211   212 1
  212   211   213 1
  213   210   211 1
  214   210   214 1
  215   208   209 1
  216   208   210 1
  217   206   207 1
  218   206   208 1
  219   205   206 1
  220   205   215 1
  221   204   205 1
  222   202   203 1
  223   202   204 1
  224   201   202 1
  225   201   215 1
  226   199   200 1
  227   199   201 1
  228   199   218 1
  229   198   199 1
  230   196   197 1
  231   196   198 1
  232   196   216 1
  233   193   194 1
  234   193   195 1
  235   193   196 1
  236   192   193 1
  237   191   192 1
  238   254   255 1
  239   251   252 1
  240   251   253 1
  241   249   250 1
  242   249   251 1
  243   249   254 1
  244   247   248 1
  245   244   245 1
  246   244   246 1
  247   243   244 1
  248   243   247 1
  249   241   242 1
  250   241   243 1
  251   239   240 1
  252   239   241 1
  253   238   239 1
  254   238   248 1
  255   237   238 1
  256   235   236 1
  257   235   237 1
  258   234   235 1
  259   234   248 1
  260   232   233 1
  261   232   234 1
  262   232   251 1
  263   231   232 1
  264   229   230 1
  265   229   231 1
  266   229   249 1
  267   226   227 1
  268   226   228 1
  269   226   229 1
  270   225   226 1
  271   222   223 1
  272   222   224 1
  273   222   225 1
  274   287   288 1
  275   284   285 1
  276   284   286 1
  277   282   283 1
  278   282   284 1
  279   282   287 1
  280   280   281 1
  281   277   278 1
  282   277   279 1
  283   276   277 1
  284   276   280 1
  285   274   275 1
  286   274   276 1
  287   272   273 1
  288   272   274 1
  289   271   272 1
  290   271   281 1
  291   270   271 1
  292   268   269 1
  293   268   270 1
  294   267   268 1
  295   267   281 1
  296   265   266 1
  297   265   267 1
  298   265   284 1
  299   264   265 1
  300   262   263 1
  301   262   264 1
  302   262   282 1
  303   259   260 1
  304   259   261 1
  305   259   262 1
  306   258   259 1
  307   255   256 1
  308   255   257 1
  309   255   258 1
  310   316   317 1
  311   313   314 1
  312   313   315 1
  313   311   312 1
  314   311   313 1
  315   311   316 1
  316   309   310 1
  317   308   309 1
  318   305   306 1
  319   305   307 1
  320   304   305 1
  321   304   308 1
  322   302   303 1
  323   302   304 1
  324   300   301 1
  325   300   302 1
  326   299   300 1
  327   299   309 1
  328   297   298 1
  329   297   299 1
  330   297   313 1
  331   296   297 1
  332   294   295 1
  333   294   296 1
  334   294   311 1
  335   291   292 1
  336   291   293 1
  337   291   294 1
  338   290   291 1
  339   289   290 1
  340   346   347 1
  341   343   344 1
  342   343   345 1
  343   341   342 1
  344   341   343 1
  345   341   346 1
  346   339   340 1
  347   338   339 1
  348   335   336 1
  349   335   337 1
  350   334   335 1
  351   334   338 1
  352   332   333 1
  353   332   334 1
  354   330   331 1
  355   330   332 1
  356   329   330 1
  357   329   339 1
  358   327   328 1
  359   327   329 1
  360   327   343 1
  361   326   327 1
  362   324   325 1
  363   324   326 1
  364   324   341 1
  365   321   322 1
  366   321   323 1
  367   321   324 1
  368   320   321 1
  369   317   318 1
  370   317   319 1
  371   317   320 1
  372   376   377 1
  373   373   374 1
  374   373   375 1
  375   371   372 1
  376   371   373 1
  377   371   376 1
  378   369   370 1
  379   368   369 1
  380   365   366 1
  381   365   367 1
  382   364   365 1
  383   364   368 1
  384   362   363 1
  385   362   364 1
  386   360   361 1
  387   360   362 1
  388   359   360 1
  389   359   369 1
  390   357   358 1
  391   357   359 1
  392   357   373 1
  393   356   357 1
  394   354   355 1
  395   354   356 1
  396   354   371 1
  397   351   352 1
  398   351   353 1
  399   351   354 1
  400   350   351 1
  401   347   348 1
  402   347   349 1
  403   347   350 1
  404   407   408 1
  405   404   405 1
  406   404   406 1
  407   402   403 1
  408   402   404 1
  409   402   407 1
  410   400   401 1
  411   398   399 1
  412   398   400 1
  413   396   397 1
  414   396   398 1
  415   392   393 1
  416   392   394 1
  417   392   395 1
  418   391   392 1
  419   391   396 1
  420   389   390 1
  421   389   391 1
  422   388   389 1
  423   388   400 1
  424   386   387 1
  425   386   388 1
  426   386   404 1
  427   385   386 1
  428   383   384 1
  429   383   385 1
  430   383   402 1
  431   380   381 1
  432   380   382 1
  433   380   383 1
  434   379   380 1
  435   378   379 1
  436   438   439 1
  437   435   436 1
  438   435   437 1
  439   433   434 1
  440   433   435 1
  441   433   438 1
  442   431   432 1
  443   429   430 1
  444   429   431 1
  445   428   429 1
  446   425   426 1
  447   425   427 1
  448   424   425 1
  449   424   428 1
  450   423   424 1
  451   423   432 1
  452   422   423 1
  453   420   421 1
  454   420   422 1
  455   419   420 1
  456   419   432 1
  457   417   418 1
  458   417   419 1
  459   417   435 1
  460   416   417 1
  461   414   415 1
  462   414   416 1
  463   414   433 1
  464   411   412 1
  465   411   413 1
  466   411   414 1
  467   410   411 1
  468   409   410 1
  469   470   471 1
  470   467   468 1
  471   467   469 1
  472   465   466 1
  473   465   467 1
  474   465   470 1
  475   463   464 1
  476   460   461 1
  477   460   462 1
  478   459   460 1
  479   459   463 1
  480   457   458 1
  481   457   459 1
  482   455   456 1
  483   455   457 1
  484   454   455 1
  485   454   464 1
  486   453   454 1
  487   451   452 1
  488   451   453 1
  489   450   451 1
  490   450   464 1
  491   448   449 1
  492   448   450 1
  493   448   467 1
  494   447   448 1
  495   445   446 1
  496   445   447 1
  497   445   465 1
  498   442   443 1
  499   442   444 1
  500   442   445 1
  501   441   442 1
  502   440   441 1
  503   499   500 1
  504   496   497 1
  505   496   498 1
  506   494   495 1
  507   494   496 1
  508   494   499 1
  509   492   493 1
  510   491   492 1
  511   488   489 1
  512   488   490 1
  513   487   488 1
  514   487   491 1
  515   485   486 1
  516   485   487 1
  517   483   484 1
  518   483   485 1
  519   482   483 1
  520   482   492 1
  521   480   481 1
  522   480   482 1
  523   480   496 1
  524   479   480 1
  525   477   478 1
  526   477   479 1
  527   477   494 1
  528   474   475 1
  529   474   476 1
  530   474   477 1
  531   473   474 1
  532   472   473 1
@<TRIPOS>SUBSTRUCTURE
      1  DT5              1 ****               0 ****  **** 
      2   DT             31 ****               0 ****  **** 
      3  DT3             63 ****               0 ****  **** 
      4  DA5             96 ****               0 ****  **** 
      5   DA            126 ****               0 ****  **** 
      6  DA3            158 ****               0 ****  **** 
      7  DG5            191 ****               0 ****  **** 
      8   DG            222 ****               0 ****  **** 
      9  DG3            255 ****               0 ****  **** 
     10  DC5            289 ****               0 ****  **** 
     11   DC            317 ****               0 ****  **** 
     12  DC3            347 ****               0 ****  **** 
     13  DTN            378 ****               0 ****  **** 
     14  DAN            409 ****               0 ****  **** 
     15  DGN            440 ****               0 ****  **** 
     16  DCN            472 ****               0 ****  **** 
