@<TRIPOS>MOLECULE
DT5
  500   532    16     0     1 
SMALL
USER_CHARGES
@<TRIPOS>ATOM
  1 HO5'    1.866026    1.500000   -0.000001 HO    1 DT5     0.4422 ****
  2 O5'     1.958076    1.721055    0.929655 OH    1 DT5    -0.6318 ****
  3 C5'     0.788438    2.110876    1.673689 CI    1 DT5    -0.0069 ****
  4 H5'     0.059609    1.300555    1.656698 H1    1 DT5     0.0754 ****
  5 H5''    0.350939    3.001862    1.223312 H1    1 DT5     0.0754 ****
  6 C4'     1.165852    2.413322    3.114690 CT    1 DT5     0.1629 ****
  7 H4'     0.391898    3.029893    3.571785 H1    1 DT5     0.1176 ****
  8 O4'     1.142228    1.169997    3.879664 OS    1 DT5    -0.3691 ****
  9 C1'     2.468203    0.737932    4.147079 CT    1 DT5     0.0680 ****
 10 H1'     2.623230    0.684850    5.224692 H2    1 DT5     0.1804 ****
 11 N1      2.632954   -0.717027    3.703400 N*    1 DT5    -0.0239 ****
 12 C6      2.875704   -1.078951    2.404560 CM    1 DT5    -0.2209 ****
 13 H6      2.959033   -0.321303    1.639428 H4    1 DT5     0.2607 ****
 14 C5      3.067013   -2.361006    2.064952 CM    1 DT5     0.0025 ****
 15 C7      3.333432   -2.767553    0.645889 CT    1 DT5    -0.2269 ****
 16 H71     4.242255   -2.280543    0.292388 HC    1 DT5     0.0770 ****
 17 H72     3.457936   -3.849201    0.594542 HC    1 DT5     0.0770 ****
 18 H73     2.493979   -2.468758    0.018083 HC    1 DT5     0.0770 ****
 19 C4      3.022940   -3.401293    3.059668 C     1 DT5     0.5194 ****
 20 O4      3.186163   -4.600921    2.842522 O     1 DT5    -0.5563 ****
 21 N3      2.773361   -2.946917    4.338595 NA    1 DT5    -0.4340 ****
 22 H3      2.730570   -3.698396    5.126977 H     1 DT5     0.3420 ****
 23 C2      2.572586   -1.635486    4.718382 C     1 DT5     0.5677 ****
 24 O2      2.357491   -1.330167    5.879810 O     1 DT5    -0.5881 ****
 25 C3'     2.575663    2.966923    3.331156 CE    1 DT5     0.0713 ****
 26 H3'     2.881940    3.535798    2.453275 H1    1 DT5     0.0985 ****
 27 C2'     3.424930    1.698842    3.438933 CT    1 DT5    -0.0854 ****
 28 H2'     4.177812    1.697074    2.650729 HC    1 DT5     0.0718 ****
 29 H2''    3.917293    1.672208    4.411028 HC    1 DT5     0.0718 ****
 30 O3'     2.785632    3.721367    4.515693 OS    1 DT5    -0.5232 ****
 31 P       4.232664    4.348687    4.839217 P     2 DT      1.1659 ****
 32 OP1     5.208669    3.239685    4.928261 O2    2 DT     -0.7761 ****
 33 OP2     4.145812    5.073250    6.126799 O2    2 DT     -0.7761 ****
 34 O5'     4.483164    5.312494    3.586890 OS    2 DT     -0.4954 ****
 35 C5'     4.118738    4.855957    2.270696 CI    2 DT     -0.0069 ****
 36 H5'     3.939734    5.715076    1.624188 H1    2 DT      0.0754 ****
 37 H5''    4.675249    3.949373    2.032994 H1    2 DT      0.0754 ****
 38 C4'     4.443224    5.925890    1.240961 CT    2 DT      0.1629 ****
 39 H4'     4.506782    5.471801    0.252091 H1    2 DT      0.1176 ****
 40 O4'     3.315703    6.848726    1.147863 OS    2 DT     -0.3691 ****
 41 C1'     3.635948    8.074537    1.789135 CT    2 DT      0.0680 ****
 42 H1'     3.575932    8.889229    1.067488 H2    2 DT      0.1804 ****
 43 N1      2.541151    8.426951    2.798156 N*    2 DT     -0.0239 ****
 44 C6      2.484770    7.889825    4.057211 CM    2 DT     -0.2209 ****
 45 H6      3.235878    7.182616    4.376727 H4    2 DT      0.2607 ****
 46 C5      1.540027    8.264524    4.930515 CM    2 DT      0.0025 ****
 47 C7      1.469717    7.682507    6.311208 CT    2 DT     -0.2269 ****
 48 H71     2.396479    7.896110    6.843735 HC    2 DT      0.0770 ****
 49 H72     0.631537    8.124317    6.850057 HC    2 DT      0.0770 ****
 50 H73     1.329972    6.603559    6.244563 HC    2 DT      0.0770 ****
 51 C4      0.551354    9.247439    4.569956 C     2 DT      0.5194 ****
 52 O4     -0.350240    9.651826    5.302417 O     2 DT     -0.5563 ****
 53 N3      0.683627    9.733814    3.285299 NA    2 DT     -0.4340 ****
 54 H3     -0.042775   10.481166    2.966072 H     2 DT      0.3420 ****
 55 C2      1.644352    9.367845    2.364715 C     2 DT      0.5677 ****
 56 O2      1.680423    9.856092    1.247257 O     2 DT     -0.5881 ****
 57 C3'     5.641494    6.820163    1.565501 CE    2 DT      0.0713 ****
 58 H3'     6.363188    6.259912    2.159956 H1    2 DT      0.0985 ****
 59 C2'     5.018982    7.922344    2.424905 CT    2 DT     -0.0854 ****
 60 H2'     5.491186    7.928127    3.407295 HC    2 DT      0.0718 ****
 61 H2''    5.170887    8.888476    1.943642 HC    2 DT      0.0718 ****
 62 O3'     6.279938    7.449183    0.464082 OS    2 DT     -0.5232 ****
 63 P       7.550300    8.410673    0.696069 P     3 DT3     1.1659 ****
 64 OP1     7.130885    9.529326    1.569628 O2    3 DT3    -0.7761 ****
 65 OP2     7.995790    8.915362   -0.621971 O2    3 DT3    -0.7761 ****
 66 O5'     8.608336    7.430176    1.388301 OS    3 DT3    -0.4954 ****
 67 C5'     8.149875    6.504622    2.391676 CI    3 DT3    -0.0069 ****
 68 H5'     7.759575    7.057889    3.245879 H1    3 DT3     0.0754 ****
 69 H5''    7.706455    7.056595    3.220413 H1    3 DT3     0.0754 ****
 70 C4'     9.316350    5.678590    2.908792 CT    3 DT3     0.1629 ****
 71 H4'     9.058601    5.251908    3.878126 H1    3 DT3     0.1176 ****
 72 O4'     9.498746    4.521848    2.036854 OS    3 DT3    -0.3691 ****
 73 C1'    10.641806    4.707392    1.215035 CT    3 DT3     0.0680 ****
 74 H1'    11.360391    3.910322    1.405865 H2    3 DT3     0.1804 ****
 75 N1     10.261750    4.484862   -0.250208 N*    3 DT3    -0.0239 ****
 76 C6      9.665428    5.447234   -1.021661 CM    3 DT3    -0.2209 ****
 77 H6      9.442746    6.416166   -0.599779 H4    3 DT3     0.2607 ****
 78 C5      9.396568    5.231386   -2.316545 CM    3 DT3     0.0025 ****
 79 C7      8.743993    6.278460   -3.169646 CT    3 DT3    -0.2269 ****
 80 H71     9.369786    7.170611   -3.193095 HC    3 DT3     0.0770 ****
 81 H72     8.618899    5.896301   -4.182763 HC    3 DT3     0.0770 ****
 82 H73     7.768415    6.530425   -2.753882 HC    3 DT3     0.0770 ****
 83 C4      9.727952    3.975676   -2.938619 C     3 DT3     0.5194 ****
 84 O4      9.519911    3.688107   -4.116296 O     3 DT3    -0.5563 ****
 85 N3     10.324452    3.066641   -2.088770 NA    3 DT3    -0.4340 ****
 86 H3     10.594044    2.100151   -2.514583 H     3 DT3     0.3420 ****
 87 C2     10.613489    3.259875   -0.753286 C     3 DT3     0.5677 ****
 88 O2     11.144981    2.392108   -0.080311 O     3 DT3    -0.5881 ****
 89 C3'    10.678247    6.375822    2.906395 CE    3 DT3     0.0713 ****
 90 H3'    10.538367    7.447954    3.044469 H1    3 DT3     0.0985 ****
 91 C2'    11.194245    6.106893    1.491360 CT    3 DT3    -0.0854 ****
 92 H2'    11.361703    7.054263    0.978965 HC    3 DT3     0.0718 ****
 93 H2''   12.131376    5.552807    1.544982 HC    3 DT3     0.0718 ****
 94 O3'    11.648181    5.875725    3.814983 OH    3 DT3    -0.6549 ****
 95 HO3'   12.494103    6.329170    3.794890 HO    3 DT3     0.4396 ****
 96 HO5'    1.866026    1.500000   -0.000001 HO    4 DA5     0.4422 ****
 97 O5'     1.958076    1.721055    0.929655 OH    4 DA5    -0.6318 ****
 98 C5'     0.788438    2.110876    1.673689 CI    4 DA5    -0.0069 ****
 99 H5'     0.059609    1.300555    1.656698 H1    4 DA5     0.0754 ****
100 H5''    0.350939    3.001862    1.223312 H1    4 DA5     0.0754 ****
101 C4'     1.165852    2.413326    3.114689 CT    4 DA5     0.1629 ****
102 H4'     0.391898    3.029897    3.571783 H1    4 DA5     0.1176 ****
103 O4'     1.142231    1.170002    3.879666 OS    4 DA5    -0.3691 ****
104 C1'     2.468206    0.737940    4.147081 CT    4 DA5     0.0431 ****
105 H1'     2.623235    0.684861    5.224694 H2    4 DA5     0.1838 ****
106 N9      2.631883   -0.707510    3.706304 N*    4 DA5    -0.0268 ****
107 C8      2.874744   -1.252950    2.473254 C2    4 DA5     0.1607 ****
108 H8      2.981762   -0.611824    1.610754 H5    4 DA5     0.1877 ****
109 N7      3.015090   -2.545282    2.486686 NB    4 DA5    -0.6175 ****
110 C5      2.854438   -2.887092    3.824392 CB    4 DA5     0.0725 ****
111 C6      2.890064   -4.114821    4.496265 CA    4 DA5     0.6897 ****
112 N6      3.109811   -5.286601    3.884511 N2    4 DA5    -0.9123 ****
113 H61     3.124377   -6.141797    4.421657 H     4 DA5     0.4167 ****
114 H62     3.260876   -5.314613    2.886265 H     4 DA5     0.4167 ****
115 N1      2.691907   -4.099278    5.821441 NC    4 DA5    -0.7624 ****
116 C2      2.474289   -2.933294    6.423125 CQ    4 DA5     0.5716 ****
117 H2      2.312233   -2.898286    7.490323 H5    4 DA5     0.0598 ****
118 N3      2.418510   -1.722694    5.899928 NC    4 DA5    -0.7417 ****
119 C4      2.621154   -1.767152    4.565964 CB    4 DA5     0.3800 ****
120 C3'     2.575663    2.966930    3.331153 CE    4 DA5     0.0713 ****
121 H3'     2.881938    3.535803    2.453270 H1    4 DA5     0.0985 ****
122 C2'     3.424932    1.698850    3.438932 CT    4 DA5    -0.0854 ****
123 H2'     4.177814    1.697080    2.650727 HC    4 DA5     0.0718 ****
124 H2''    3.917296    1.672219    4.411027 HC    4 DA5     0.0718 ****
125 O3'     2.785632    3.721376    4.515688 OS    4 DA5    -0.5232 ****
126 P       4.232663    4.348699    4.839210 P     5 DA      1.1659 ****
127 OP1     5.208670    3.239698    4.928254 O2    5 DA     -0.7761 ****
128 OP2     4.145812    5.073263    6.126790 O2    5 DA     -0.7761 ****
129 O5'     4.483160    5.312504    3.586880 OS    5 DA     -0.4954 ****
130 C5'     4.118734    4.855964    2.270687 CI    5 DA     -0.0069 ****
131 H5'     3.939729    5.715082    1.624178 H1    5 DA      0.0754 ****
132 H5''    4.675246    3.949381    2.032986 H1    5 DA      0.0754 ****
133 C4'     4.443217    5.925896    1.240951 CT    5 DA      0.1629 ****
134 H4'     4.506774    5.471805    0.252082 H1    5 DA      0.1176 ****
135 O4'     3.315694    6.848730    1.147852 OS    5 DA     -0.3691 ****
136 C1'     3.635938    8.074543    1.789122 CT    5 DA      0.0431 ****
137 H1'     3.575920    8.889233    1.067474 H2    5 DA      0.1838 ****
138 N9      2.548297    8.424654    2.791549 N*    5 DA     -0.0268 ****
139 C8      2.331709    7.995984    4.074604 C2    5 DA      0.1607 ****
140 H8      3.006379    7.284492    4.527376 H5    5 DA      0.1877 ****
141 N7      1.318967    8.566065    4.657151 NB    5 DA     -0.6175 ****
142 C5      0.824013    9.437685    3.694136 CB    5 DA      0.0725 ****
143 C6     -0.250293   10.335384    3.695684 CA    5 DA      0.6897 ****
144 N6     -1.062360   10.515178    4.746313 N2    5 DA     -0.9123 ****
145 H61    -1.822457   11.177843    4.689497 H     5 DA      0.4167 ****
146 H62    -0.914346    9.988028    5.595020 H     5 DA      0.4167 ****
147 N1     -0.463707   11.044603    2.578964 NC    5 DA     -0.7624 ****
148 C2      0.345542   10.861892    1.539429 CQ    5 DA      0.5716 ****
149 H2      0.191261   11.423250    0.629773 H5    5 DA      0.0598 ****
150 N3      1.381149   10.051981    1.421264 NC    5 DA     -0.7417 ****
151 C4      1.573450    9.350607    2.558628 CB    5 DA      0.3800 ****
152 C3'     5.641486    6.820171    1.565488 CE    5 DA      0.0713 ****
153 H3'     6.363181    6.259923    2.159943 H1    5 DA      0.0985 ****
154 C2'     5.018973    7.922353    2.424891 CT    5 DA     -0.0854 ****
155 H2'     5.491178    7.928138    3.407280 HC    5 DA      0.0718 ****
156 H2''    5.170876    8.888484    1.943626 HC    5 DA      0.0718 ****
157 O3'     6.279928    7.449190    0.464067 OS    5 DA     -0.5232 ****
158 P       7.550289    8.410683    0.696051 P     6 DA3     1.1659 ****
159 OP1     7.130873    9.529336    1.569609 O2    6 DA3    -0.7761 ****
160 OP2     7.995776    8.915371   -0.621990 O2    6 DA3    -0.7761 ****
161 O5'     8.608327    7.430188    1.388283 OS    6 DA3    -0.4954 ****
162 C5'     8.149869    6.504636    2.391661 CI    6 DA3    -0.0069 ****
163 H5'     7.759571    7.057904    3.245864 H1    6 DA3     0.0754 ****
164 H5''    7.706448    7.056610    3.220397 H1    6 DA3     0.0754 ****
165 C4'     9.316345    5.678607    2.908777 CT    6 DA3     0.1629 ****
166 H4'     9.058597    5.251926    3.878111 H1    6 DA3     0.1176 ****
167 O4'     9.498742    4.521863    2.036840 OS    6 DA3    -0.3691 ****
168 C1'    10.641801    4.707407    1.215020 CT    6 DA3     0.0431 ****
169 H1'    11.360387    3.910339    1.405850 H2    6 DA3     0.1838 ****
170 N9     10.264228    4.486329   -0.240645 N*    6 DA3    -0.0268 ****
171 C8      9.671370    5.316374   -1.155220 C2    6 DA3     0.1607 ****
172 H8      9.392144    6.320435   -0.871857 H5    6 DA3     0.1877 ****
173 N7      9.556947    4.797631   -2.341732 NB    6 DA3    -0.6175 ****
174 C5     10.113200    3.530628   -2.209878 CB    6 DA3     0.0725 ****
175 C6     10.294255    2.479662   -3.116900 CA    6 DA3     0.6897 ****
176 N6      9.916213    2.537675   -4.401159 N2    6 DA3    -0.9123 ****
177 H61    10.072725    1.747053   -5.009864 H     6 DA3     0.4167 ****
178 H62     9.474759    3.372021   -4.760440 H     6 DA3     0.4167 ****
179 N1     10.878272    1.363564   -2.659898 NC    6 DA3    -0.7624 ****
180 C2     11.251345    1.311803   -1.384345 CQ    6 DA3     0.5716 ****
181 H2     11.723763    0.421812   -0.995582 H5    6 DA3     0.0598 ****
182 N3     11.134056    2.230142   -0.443443 NC    6 DA3    -0.7417 ****
183 C4     10.543483    3.342329   -0.930028 CB    6 DA3     0.3800 ****
184 C3'    10.678242    6.375840    2.906377 CE    6 DA3     0.0713 ****
185 H3'    10.538360    7.447973    3.044450 H1    6 DA3     0.0985 ****
186 C2'    11.194238    6.106910    1.491342 CT    6 DA3    -0.0854 ****
187 H2'    11.361694    7.054279    0.978945 HC    6 DA3     0.0718 ****
188 H2''   12.131370    5.552826    1.544964 HC    6 DA3     0.0718 ****
189 O3'    11.648177    5.875747    3.814965 OH    6 DA3    -0.6549 ****
190 HO3'   12.494098    6.329193    3.794871 HO    6 DA3     0.4396 ****
191 HO5'    1.866026    1.500000   -0.000001 HO    7 DG5     0.4422 ****
192 O5'     1.958076    1.721055    0.929655 OH    7 DG5    -0.6318 ****
193 C5'     0.788438    2.110876    1.673689 CI    7 DG5    -0.0069 ****
194 H5'     0.059609    1.300555    1.656698 H1    7 DG5     0.0754 ****
195 H5''    0.350939    3.001862    1.223312 H1    7 DG5     0.0754 ****
196 C4'     1.165852    2.413322    3.114690 CT    7 DG5     0.1629 ****
197 H4'     0.391898    3.029893    3.571785 H1    7 DG5     0.1176 ****
198 O4'     1.142228    1.169997    3.879664 OS    7 DG5    -0.3691 ****
199 C1'     2.468203    0.737932    4.147079 CT    7 DG5     0.0358 ****
200 H1'     2.623230    0.684850    5.224692 H2    7 DG5     0.1746 ****
201 N9      2.590683   -0.679099    3.703095 N*    7 DG5     0.0577 ****
202 C8      2.813129   -1.180191    2.436673 CK    7 DG5     0.0736 ****
203 H8      2.923923   -0.505431    1.600717 H5    7 DG5     0.1997 ****
204 N7      2.866570   -2.487996    2.382915 NB    7 DG5    -0.5725 ****
205 C5      2.666619   -2.884785    3.699987 CB    7 DG5     0.1991 ****
206 C6      2.618174   -4.183247    4.272741 C     7 DG5     0.4918 ****
207 O6      2.745116   -5.274679    3.719964 O     7 DG5    -0.5699 ****
208 N1      2.392360   -4.124070    5.653142 NA    7 DG5    -0.5053 ****
209 H1      2.340247   -4.991530    6.147911 H     7 DG5     0.3520 ****
210 C2      2.235990   -2.964893    6.385439 CA    7 DG5     0.7432 ****
211 N2      2.027970   -3.123384    7.699672 N2    7 DG5    -0.9230 ****
212 H21     1.962798   -3.996108    8.203861 H     7 DG5     0.4235 ****
213 H22     1.903763   -2.280230    8.241672 H     7 DG5     0.4235 ****
214 N3      2.283792   -1.749405    5.847662 NC    7 DG5    -0.6636 ****
215 C4      2.502700   -1.789344    4.505990 CB    7 DG5     0.1814 ****
216 C3'     2.575663    2.966923    3.331156 CE    7 DG5     0.0713 ****
217 H3'     2.881940    3.535798    2.453275 H1    7 DG5     0.0985 ****
218 C2'     3.424930    1.698842    3.438933 CT    7 DG5    -0.0854 ****
219 H2'     4.177812    1.697074    2.650729 HC    7 DG5     0.0718 ****
220 H2''    3.917293    1.672208    4.411028 HC    7 DG5     0.0718 ****
221 O3'     2.785632    3.721367    4.515693 OS    7 DG5    -0.5232 ****
222 P       4.232664    4.348687    4.839217 P     8 DG      1.1659 ****
223 OP1     5.208669    3.239685    4.928261 O2    8 DG     -0.7761 ****
224 OP2     4.145812    5.073250    6.126799 O2    8 DG     -0.7761 ****
225 O5'     4.483164    5.312494    3.586890 OS    8 DG     -0.4954 ****
226 C5'     4.118738    4.855957    2.270696 CI    8 DG     -0.0069 ****
227 H5'     3.939734    5.715076    1.624188 H1    8 DG      0.0754 ****
228 H5''    4.675249    3.949373    2.032994 H1    8 DG      0.0754 ****
229 C4'     4.443224    5.925890    1.240961 CT    8 DG      0.1629 ****
230 H4'     4.506782    5.471801    0.252091 H1    8 DG      0.1176 ****
231 O4'     3.315703    6.848726    1.147863 OS    8 DG     -0.3691 ****
232 C1'     3.635948    8.074537    1.789135 CT    8 DG      0.0358 ****
233 H1'     3.575932    8.889229    1.067488 H2    8 DG      0.1746 ****
234 N9      2.550499    8.384423    2.761694 N*    8 DG      0.0577 ****
235 C8      2.363330    7.904534    4.041957 CK    8 DG      0.0736 ****
236 H8      3.065870    7.200466    4.462823 H5    8 DG      0.1997 ****
237 N7      1.297309    8.378257    4.638014 NB    8 DG     -0.5725 ****
238 C5      0.737042    9.229870    3.693049 CB    8 DG      0.1991 ****
239 C6     -0.432577   10.032618    3.756193 C     8 DG      0.4918 ****
240 O6     -1.232010   10.158319    4.682479 O     8 DG     -0.5699 ****
241 N1     -0.629096   10.742736    2.565768 NA    8 DG     -0.5053 ****
242 H1     -1.431234   11.337491    2.512483 H     8 DG      0.3520 ****
243 C2      0.195230   10.687673    1.460392 CA    8 DG      0.7432 ****
244 N2     -0.168754   11.446002    0.417295 N2    8 DG     -0.9230 ****
245 H21    -0.983145   12.039845    0.352349 H     8 DG      0.4235 ****
246 H22     0.424401   11.404848   -0.399146 H     8 DG      0.4235 ****
247 N3      1.291565    9.936844    1.403761 NC    8 DG     -0.6636 ****
248 C4      1.497045    9.239920    2.553402 CB    8 DG      0.1814 ****
249 C3'     5.641494    6.820163    1.565501 CE    8 DG      0.0713 ****
250 H3'     6.363188    6.259912    2.159956 H1    8 DG      0.0985 ****
251 C2'     5.018982    7.922344    2.424905 CT    8 DG     -0.0854 ****
252 H2'     5.491186    7.928127    3.407295 HC    8 DG      0.0718 ****
253 H2''    5.170887    8.888476    1.943642 HC    8 DG      0.0718 ****
254 O3'     6.279938    7.449183    0.464082 OS    8 DG     -0.5232 ****
255 P       7.550300    8.410673    0.696069 P     9 DG3     1.1659 ****
256 OP1     7.130885    9.529326    1.569628 O2    9 DG3    -0.7761 ****
257 OP2     7.995790    8.915362   -0.621971 O2    9 DG3    -0.7761 ****
258 O5'     8.608336    7.430176    1.388301 OS    9 DG3    -0.4954 ****
259 C5'     8.149875    6.504622    2.391676 CI    9 DG3    -0.0069 ****
260 H5'     7.759575    7.057889    3.245879 H1    9 DG3     0.0754 ****
261 H5''    7.706455    7.056595    3.220413 H1    9 DG3     0.0754 ****
262 C4'     9.316350    5.678590    2.908792 CT    9 DG3     0.1629 ****
263 H4'     9.058601    5.251908    3.878126 H1    9 DG3     0.1176 ****
264 O4'     9.498746    4.521848    2.036854 OS    9 DG3    -0.3691 ****
265 C1'    10.641806    4.707392    1.215035 CT    9 DG3     0.0358 ****
266 H1'    11.360391    3.910322    1.405865 H2    9 DG3     0.1746 ****
267 N9     10.234309    4.483181   -0.200512 N*    9 DG3     0.0577 ****
268 C8      9.614356    5.349859   -1.077396 CK    9 DG3     0.0736 ****
269 H8      9.359157    6.349685   -0.758610 H5    9 DG3     0.1997 ****
270 N7      9.389254    4.838444   -2.262252 NB    9 DG3    -0.5725 ****
271 C5      9.892173    3.545966   -2.169115 CB    9 DG3     0.1991 ****
272 C6      9.936912    2.504146   -3.132967 C     9 DG3     0.4918 ****
273 O6      9.531467    2.510571   -4.294205 O     9 DG3    -0.5699 ****
274 N1     10.537411    1.351942   -2.611595 NA    9 DG3    -0.5053 ****
275 H1     10.614066    0.559601   -3.216838 H     9 DG3     0.3520 ****
276 C2     11.031838    1.222142   -1.329763 CA    9 DG3     0.7432 ****
277 N2     11.570053    0.033459   -1.024873 N2    9 DG3    -0.9230 ****
278 H21    11.640462   -0.774328   -1.627056 H     9 DG3     0.4235 ****
279 H22    11.926453   -0.072877   -0.085846 H     9 DG3     0.4235 ****
280 N3     10.991034    2.199738   -0.428907 NC    9 DG3    -0.6636 ****
281 C4     10.410125    3.327120   -0.919983 CB    9 DG3     0.1814 ****
282 C3'    10.678247    6.375822    2.906395 CE    9 DG3     0.0713 ****
283 H3'    10.538367    7.447954    3.044469 H1    9 DG3     0.0985 ****
284 C2'    11.194245    6.106893    1.491360 CT    9 DG3    -0.0854 ****
285 H2'    11.361703    7.054263    0.978965 HC    9 DG3     0.0718 ****
286 H2''   12.131376    5.552807    1.544982 HC    9 DG3     0.0718 ****
287 O3'    11.648181    5.875725    3.814983 OH    9 DG3    -0.6549 ****
288 HO3'   12.494103    6.329170    3.794890 HO    9 DG3     0.4396 ****
289 HO5'    1.866026    1.500000   -0.000001 HO   10 DC5     0.4422 ****
290 O5'     1.958076    1.721055    0.929655 OH   10 DC5    -0.6318 ****
291 C5'     0.788438    2.110876    1.673689 CI   10 DC5    -0.0069 ****
292 H5'     0.059609    1.300555    1.656698 H1   10 DC5     0.0754 ****
293 H5''    0.350939    3.001862    1.223312 H1   10 DC5     0.0754 ****
294 C4'     1.165852    2.413322    3.114690 CT   10 DC5     0.1629 ****
295 H4'     0.391898    3.029893    3.571785 H1   10 DC5     0.1176 ****
296 O4'     1.142228    1.169997    3.879664 OS   10 DC5    -0.3691 ****
297 C1'     2.468203    0.737932    4.147079 CT   10 DC5    -0.0116 ****
298 H1'     2.623230    0.684850    5.224692 H2   10 DC5     0.1963 ****
299 N1      2.591677   -0.679109    3.703402 N*   10 DC5    -0.0339 ****
300 C6      2.814056   -0.989712    2.398154 C1   10 DC5    -0.0183 ****
301 H6      2.904093   -0.203076    1.663650 H4   10 DC5     0.2293 ****
302 C5      2.926421   -2.283845    1.995422 C1   10 DC5    -0.5222 ****
303 H5      3.104661   -2.514239    0.945065 HA   10 DC5     0.1863 ****
304 C4      2.799912   -3.288859    3.004800 CA   10 DC5     0.8439 ****
305 N4      2.898406   -4.565468    2.683913 N2   10 DC5    -0.9773 ****
306 H41     2.803314   -5.244631    3.425395 H    10 DC5     0.4314 ****
307 H42     3.063322   -4.838270    1.725539 H    10 DC5     0.4314 ****
308 N3      2.582461   -2.976084    4.279079 NC   10 DC5    -0.7748 ****
309 C2      2.473124   -1.675589    4.661648 C    10 DC5     0.7959 ****
310 O2      2.270624   -1.344208    5.839264 O    10 DC5    -0.6548 ****
311 C3'     2.575663    2.966923    3.331156 CE   10 DC5     0.0713 ****
312 H3'     2.881940    3.535798    2.453275 H1   10 DC5     0.0985 ****
313 C2'     3.424930    1.698842    3.438933 CT   10 DC5    -0.0854 ****
314 H2'     4.177812    1.697074    2.650729 HC   10 DC5     0.0718 ****
315 H2''    3.917293    1.672208    4.411028 HC   10 DC5     0.0718 ****
316 O3'     2.785632    3.721367    4.515693 OS   10 DC5    -0.5232 ****
317 P       4.232664    4.348687    4.839217 P    11 DC      1.1659 ****
318 OP1     5.208669    3.239685    4.928261 O2   11 DC     -0.7761 ****
319 OP2     4.145812    5.073250    6.126799 O2   11 DC     -0.7761 ****
320 O5'     4.483164    5.312494    3.586890 OS   11 DC     -0.4954 ****
321 C5'     4.118738    4.855957    2.270696 CI   11 DC     -0.0069 ****
322 H5'     3.939734    5.715076    1.624188 H1   11 DC      0.0754 ****
323 H5''    4.675249    3.949373    2.032994 H1   11 DC      0.0754 ****
324 C4'     4.443224    5.925890    1.240961 CT   11 DC      0.1629 ****
325 H4'     4.506782    5.471801    0.252091 H1   11 DC      0.1176 ****
326 O4'     3.315703    6.848726    1.147863 OS   11 DC     -0.3691 ****
327 C1'     3.635948    8.074537    1.789135 CT   11 DC     -0.0116 ****
328 H1'     3.575932    8.889229    1.067488 H2   11 DC      0.1963 ****
329 N1      2.550993    8.385298    2.761966 N*   11 DC     -0.0339 ****
330 C6      2.527465    7.811741    3.994881 C1   11 DC     -0.0183 ****
331 H6      3.303736    7.118241    4.282737 H4   11 DC      0.2293 ****
332 C5      1.536176    8.096854    4.881254 C1   11 DC     -0.5222 ****
333 H5      1.533302    7.627764    5.865147 HA   11 DC      0.1863 ****
334 C4      0.531816    9.020573    4.453579 CA   11 DC      0.8439 ****
335 N4     -0.459599    9.342406    5.263466 N2   11 DC     -0.9773 ****
336 H41    -1.148854    9.998167    4.924340 H    11 DC      0.4314 ****
337 H42    -0.513616    8.938528    6.187623 H    11 DC      0.4314 ****
338 N3      0.562621    9.576842    3.245889 NC   11 DC     -0.7748 ****
339 C2      1.562710    9.278565    2.373851 C    11 DC      0.7959 ****
340 O2      1.625942    9.776314    1.239898 O    11 DC     -0.6548 ****
341 C3'     5.641494    6.820163    1.565501 CE   11 DC      0.0713 ****
342 H3'     6.363188    6.259912    2.159956 H1   11 DC      0.0985 ****
343 C2'     5.018982    7.922344    2.424905 CT   11 DC     -0.0854 ****
344 H2'     5.491186    7.928127    3.407295 HC   11 DC      0.0718 ****
345 H2''    5.170887    8.888476    1.943642 HC   11 DC      0.0718 ****
346 O3'     6.279938    7.449183    0.464082 OS   11 DC     -0.5232 ****
347 P       7.550300    8.410673    0.696069 P    12 DC3     1.1659 ****
348 OP1     7.130885    9.529326    1.569628 O2   12 DC3    -0.7761 ****
349 OP2     7.995790    8.915362   -0.621971 O2   12 DC3    -0.7761 ****
350 O5'     8.608336    7.430176    1.388301 OS   12 DC3    -0.4954 ****
351 C5'     8.149875    6.504622    2.391676 CI   12 DC3    -0.0069 ****
352 H5'     7.759575    7.057889    3.245879 H1   12 DC3     0.0754 ****
353 H5''    7.706455    7.056595    3.220413 H1   12 DC3     0.0754 ****
354 C4'     9.316350    5.678590    2.908792 CT   12 DC3     0.1629 ****
355 H4'     9.058601    5.251908    3.878126 H1   12 DC3     0.1176 ****
356 O4'     9.498746    4.521848    2.036854 OS   12 DC3    -0.3691 ****
357 C1'    10.641806    4.707392    1.215035 CT   12 DC3    -0.0116 ****
358 H1'    11.360391    3.910322    1.405865 H2   12 DC3     0.1963 ****
359 N1     10.235283    4.483374   -0.200823 N*   12 DC3    -0.0339 ****
360 C6      9.628253    5.464408   -0.921023 C1   12 DC3    -0.0183 ****
361 H6      9.433411    6.425157   -0.467814 H4   12 DC3     0.2293 ****
362 C5      9.258043    5.257720   -2.213240 C1   12 DC3    -0.5222 ****
363 H5      8.772541    6.055488   -2.775338 HA   12 DC3     0.1863 ****
364 C4      9.537399    3.969738   -2.768183 CA   12 DC3     0.8439 ****
365 N4      9.204958    3.700705   -4.016983 N2   12 DC3    -0.9773 ****
366 H41     9.419193    2.779690   -4.371857 H    12 DC3     0.4314 ****
367 H42     8.752419    4.402007   -4.585741 H    12 DC3     0.4314 ****
368 N3     10.131484    3.016037   -2.056551 NC   12 DC3    -0.7748 ****
369 C2     10.494019    3.242624   -0.765496 C    12 DC3     0.7959 ****
370 O2     11.049500    2.379264   -0.070046 O    12 DC3    -0.6548 ****
371 C3'    10.678247    6.375822    2.906395 CE   12 DC3     0.0713 ****
372 H3'    10.538367    7.447954    3.044469 H1   12 DC3     0.0985 ****
373 C2'    11.194245    6.106893    1.491360 CT   12 DC3    -0.0854 ****
374 H2'    11.361703    7.054263    0.978965 HC   12 DC3     0.0718 ****
375 H2''   12.131376    5.552807    1.544982 HC   12 DC3     0.0718 ****
376 O3'    11.648181    5.875725    3.814983 OH   12 DC3    -0.6549 ****
377 HO3'   12.494103    6.329170    3.794890 HO   12 DC3     0.4396 ****
378 HO5'    1.866026    1.500000   -0.000001 HO   13 DTN     0.4422 ****
379 O5'     1.958076    1.721055    0.929655 OH   13 DTN    -0.6318 ****
380 C5'     0.788438    2.110876    1.673689 CI   13 DTN    -0.0069 ****
381 H5'     0.059609    1.300555    1.656698 H1   13 DTN     0.0754 ****
382 H5''    0.350939    3.001862    1.223312 H1   13 DTN     0.0754 ****
383 C4'     1.165852    2.413322    3.114690 CT   13 DTN     0.1629 ****
384 H4'     0.391898    3.029893    3.571785 H1   13 DTN     0.1176 ****
385 O4'     1.142228    1.169997    3.879664 OS   13 DTN    -0.3691 ****
386 C1'     2.468203    0.737932    4.147079 CT   13 DTN     0.0680 ****
387 H1'     2.623230    0.684850    5.224692 H2   13 DTN     0.1804 ****
388 N1      2.632954   -0.717027    3.703400 N*   13 DTN    -0.0239 ****
389 C6      2.875704   -1.078951    2.404560 CM   13 DTN    -0.2209 ****
390 H6      2.959033   -0.321303    1.639428 H4   13 DTN     0.2607 ****
391 C5      3.067013   -2.361006    2.064952 CM   13 DTN     0.0025 ****
392 C7      3.333432   -2.767553    0.645889 CT   13 DTN    -0.2269 ****
393 H71     4.242255   -2.280543    0.292388 HC   13 DTN     0.0770 ****
394 H72     3.457936   -3.849201    0.594542 HC   13 DTN     0.0770 ****
395 H73     2.493979   -2.468758    0.018083 HC   13 DTN     0.0770 ****
396 C4      3.022940   -3.401293    3.059668 C    13 DTN     0.5194 ****
397 O4      3.186163   -4.600921    2.842522 O    13 DTN    -0.5563 ****
398 N3      2.773361   -2.946917    4.338595 NA   13 DTN    -0.4340 ****
399 H3      2.730570   -3.698396    5.126977 H    13 DTN     0.3420 ****
400 C2      2.572586   -1.635486    4.718382 C    13 DTN     0.5677 ****
401 O2      2.357491   -1.330167    5.879810 O    13 DTN    -0.5881 ****
402 C3'     2.575663    2.966923    3.331156 CE   13 DTN     0.0713 ****
403 H3'     2.881940    3.535798    2.453275 H1   13 DTN     0.0985 ****
404 C2'     3.424930    1.698842    3.438933 CT   13 DTN    -0.0854 ****
405 H2'     4.177812    1.697074    2.650729 HC   13 DTN     0.0718 ****
406 H2''    3.917293    1.672208    4.411028 HC   13 DTN     0.0718 ****
407 O3'     2.785632    3.721367    4.515693 OH   13 DTN    -0.6549 ****
408 HO3'    3.677545    4.057868    4.629089 HO   13 DTN     0.4396 ****
409 HO5'    1.866026    1.500000   -0.000001 HO   14 DAN     0.4422 ****
410 O5'     1.958076    1.721055    0.929655 OH   14 DAN    -0.6318 ****
411 C5'     0.788438    2.110876    1.673689 CI   14 DAN    -0.0069 ****
412 H5'     0.059609    1.300555    1.656698 H1   14 DAN     0.0754 ****
413 H5''    0.350939    3.001862    1.223312 H1   14 DAN     0.0754 ****
414 C4'     1.165852    2.413326    3.114689 CT   14 DAN     0.1629 ****
415 H4'     0.391898    3.029897    3.571783 H1   14 DAN     0.1176 ****
416 O4'     1.142231    1.170002    3.879666 OS   14 DAN    -0.3691 ****
417 C1'     2.468206    0.737940    4.147081 CT   14 DAN     0.0431 ****
418 H1'     2.623235    0.684861    5.224694 H2   14 DAN     0.1838 ****
419 N9      2.631883   -0.707510    3.706304 N*   14 DAN    -0.0268 ****
420 C8      2.874744   -1.252950    2.473254 C2   14 DAN     0.1607 ****
421 H8      2.981762   -0.611824    1.610754 H5   14 DAN     0.1877 ****
422 N7      3.015090   -2.545282    2.486686 NB   14 DAN    -0.6175 ****
423 C5      2.854438   -2.887092    3.824392 CB   14 DAN     0.0725 ****
424 C6      2.890064   -4.114821    4.496265 CA   14 DAN     0.6897 ****
425 N6      3.109811   -5.286601    3.884511 N2   14 DAN    -0.9123 ****
426 H61     3.124377   -6.141797    4.421657 H    14 DAN     0.4167 ****
427 H62     3.260876   -5.314613    2.886265 H    14 DAN     0.4167 ****
428 N1      2.691907   -4.099278    5.821441 NC   14 DAN    -0.7624 ****
429 C2      2.474289   -2.933294    6.423125 CQ   14 DAN     0.5716 ****
430 H2      2.312233   -2.898286    7.490323 H5   14 DAN     0.0598 ****
431 N3      2.418510   -1.722694    5.899928 NC   14 DAN    -0.7417 ****
432 C4      2.621154   -1.767152    4.565964 CB   14 DAN     0.3800 ****
433 C3'     2.575663    2.966930    3.331153 CE   14 DAN     0.0713 ****
434 H3'     2.881938    3.535803    2.453270 H1   14 DAN     0.0985 ****
435 C2'     3.424932    1.698850    3.438932 CT   14 DAN    -0.0854 ****
436 H2'     4.177814    1.697080    2.650727 HC   14 DAN     0.0718 ****
437 H2''    3.917296    1.672219    4.411027 HC   14 DAN     0.0718 ****
438 O3'     2.785632    3.721376    4.515688 OH   14 DAN    -0.6549 ****
439 HO3'    3.677544    4.057879    4.629083 HO   14 DAN     0.4396 ****
440 HO5'    1.866026    1.500000   -0.000001 HO   15 DGN     0.4422 ****
441 O5'     1.958076    1.721055    0.929655 OH   15 DGN    -0.6318 ****
442 C5'     0.788438    2.110876    1.673689 CI   15 DGN    -0.0069 ****
443 H5'     0.059609    1.300555    1.656698 H1   15 DGN     0.0754 ****
444 H5''    0.350939    3.001862    1.223312 H1   15 DGN     0.0754 ****
445 C4'     1.165852    2.413322    3.114690 CT   15 DGN     0.1629 ****
446 H4'     0.391898    3.029893    3.571785 H1   15 DGN     0.1176 ****
447 O4'     1.142228    1.169997    3.879664 OS   15 DGN    -0.3691 ****
448 C1'     2.468203    0.737932    4.147079 CT   15 DGN     0.0358 ****
449 H1'     2.623230    0.684850    5.224692 H2   15 DGN     0.1746 ****
450 N9      2.590683   -0.679099    3.703095 N*   15 DGN     0.0577 ****
451 C8      2.813129   -1.180191    2.436673 CK   15 DGN     0.0736 ****
452 H8      2.923923   -0.505431    1.600717 H5   15 DGN     0.1997 ****
453 N7      2.866570   -2.487996    2.382915 NB   15 DGN    -0.5725 ****
454 C5      2.666619   -2.884785    3.699987 CB   15 DGN     0.1991 ****
455 C6      2.618174   -4.183247    4.272741 C    15 DGN     0.4918 ****
456 O6      2.745116   -5.274679    3.719964 O    15 DGN    -0.5699 ****
457 N1      2.392360   -4.124070    5.653142 NA   15 DGN    -0.5053 ****
458 H1      2.340247   -4.991530    6.147911 H    15 DGN     0.3520 ****
459 C2      2.235990   -2.964893    6.385439 CA   15 DGN     0.7432 ****
460 N2      2.027970   -3.123384    7.699672 N2   15 DGN    -0.9230 ****
461 H21     1.962798   -3.996108    8.203861 H    15 DGN     0.4235 ****
462 H22     1.903763   -2.280230    8.241672 H    15 DGN     0.4235 ****
463 N3      2.283792   -1.749405    5.847662 NC   15 DGN    -0.6636 ****
464 C4      2.502700   -1.789344    4.505990 CB   15 DGN     0.1814 ****
465 C3'     2.575663    2.966923    3.331156 CE   15 DGN     0.0713 ****
466 H3'     2.881940    3.535798    2.453275 H1   15 DGN     0.0985 ****
467 C2'     3.424930    1.698842    3.438933 CT   15 DGN    -0.0854 ****
468 H2'     4.177812    1.697074    2.650729 HC   15 DGN     0.0718 ****
469 H2''    3.917293    1.672208    4.411028 HC   15 DGN     0.0718 ****
470 O3'     2.785632    3.721367    4.515693 OH   15 DGN    -0.6549 ****
471 HO3'    3.677545    4.057868    4.629089 HO   15 DGN     0.4396 ****
472 HO5'    1.866026    1.500000   -0.000001 HO   16 DCN     0.4422 ****
473 O5'     1.958076    1.721055    0.929655 OH   16 DCN    -0.6318 ****
474 C5'     0.788438    2.110876    1.673689 CI   16 DCN    -0.0069 ****
475 H5'     0.059609    1.300555    1.656698 H1   16 DCN     0.0754 ****
476 H5''    0.350939    3.001862    1.223312 H1   16 DCN     0.0754 ****
477 C4'     1.165852    2.413322    3.114690 CT   16 DCN     0.1629 ****
478 H4'     0.391898    3.029893    3.571785 H1   16 DCN     0.1176 ****
479 O4'     1.142228    1.169997    3.879664 OS   16 DCN    -0.3691 ****
480 C1'     2.468203    0.737932    4.147079 CT   16 DCN    -0.0116 ****
481 H1'     2.623230    0.684850    5.224692 H2   16 DCN     0.1963 ****
482 N1      2.591677   -0.679109    3.703402 N*   16 DCN    -0.0339 ****
483 C6      2.814056   -0.989712    2.398154 C1   16 DCN    -0.0183 ****
484 H6      2.904093   -0.203076    1.663650 H4   16 DCN     0.2293 ****
485 C5      2.926421   -2.283845    1.995422 C1   16 DCN    -0.5222 ****
486 H5      3.104661   -2.514239    0.945065 HA   16 DCN     0.1863 ****
487 C4      2.799912   -3.288859    3.004800 CA   16 DCN     0.8439 ****
488 N4      2.898406   -4.565468    2.683913 N2   16 DCN    -0.9773 ****
489 H41     2.803314   -5.244631    3.425395 H    16 DCN     0.4314 ****
490 H42     3.063322   -4.838270    1.725539 H    16 DCN     0.4314 ****
491 N3      2.582461   -2.976084    4.279079 NC   16 DCN    -0.7748 ****
492 C2      2.473124   -1.675589    4.661648 C    16 DCN     0.7959 ****
493 O2      2.270624   -1.344208    5.839264 O    16 DCN    -0.6548 ****
494 C3'     2.575663    2.966923    3.331156 CE   16 DCN     0.0713 ****
495 H3'     2.881940    3.535798    2.453275 H1   16 DCN     0.0985 ****
496 C2'     3.424930    1.698842    3.438933 CT   16 DCN    -0.0854 ****
497 H2'     4.177812    1.697074    2.650729 HC   16 DCN     0.0718 ****
498 H2''    3.917293    1.672208    4.411028 HC   16 DCN     0.0718 ****
499 O3'     2.785632    3.721367    4.515693 OH   16 DCN    -0.6549 ****
500 HO3'    3.677545    4.057868    4.629089 HO   16 DCN     0.4396 ****
@<TRIPOS>BOND
    1    64    63 1
    2    65    63 1
    3    66    63 1
    4    67    66 1
    5    68    67 1
    6    69    67 1
    7    70    67 1
    8    71    70 1
    9    72    70 1
   10    73    72 1
   11    74    73 1
   12    75    73 1
   13    76    75 1
   14    77    76 1
   15    78    76 1
   16    79    78 1
   17    80    79 1
   18    81    79 1
   19    82    79 1
   20    83    78 1
   21    84    83 1
   22    85    83 1
   23    86    85 1
   24    87    75 1
   25    87    85 1
   26    88    87 1
   27    89    70 1
   28    90    89 1
   29    91    73 1
   30    91    89 1
   31    92    91 1
   32    93    91 1
   33    94    89 1
   34    95    94 1
   35    32    31 1
   36    33    31 1
   37    34    31 1
   38    35    34 1
   39    36    35 1
   40    37    35 1
   41    38    35 1
   42    39    38 1
   43    40    38 1
   44    41    40 1
   45    42    41 1
   46    43    41 1
   47    44    43 1
   48    45    44 1
   49    46    44 1
   50    47    46 1
   51    48    47 1
   52    49    47 1
   53    50    47 1
   54    51    46 1
   55    52    51 1
   56    53    51 1
   57    54    53 1
   58    55    43 1
   59    55    53 1
   60    56    55 1
   61    57    38 1
   62    58    57 1
   63    59    41 1
   64    59    57 1
   65    60    59 1
   66    61    59 1
   67    62    57 1
   68    62    63 1
   69     2     1 1
   70     3     2 1
   71     4     3 1
   72     5     3 1
   73     6     3 1
   74     7     6 1
   75     8     6 1
   76     9     8 1
   77    10     9 1
   78    11     9 1
   79    12    11 1
   80    13    12 1
   81    14    12 1
   82    15    14 1
   83    16    15 1
   84    17    15 1
   85    18    15 1
   86    19    14 1
   87    20    19 1
   88    21    19 1
   89    22    21 1
   90    23    11 1
   91    23    21 1
   92    24    23 1
   93    25     6 1
   94    26    25 1
   95    27     9 1
   96    27    25 1
   97    28    27 1
   98    29    27 1
   99    30    25 1
  100    30    31 1
  101    97    96 1
  102    98    97 1
  103    99    98 1
  104   100    98 1
  105   101    98 1
  106   102   101 1
  107   103   101 1
  108   104   103 1
  109   105   104 1
  110   106   104 1
  111   107   106 1
  112   108   107 1
  113   109   107 1
  114   110   109 1
  115   111   110 1
  116   112   111 1
  117   113   112 1
  118   114   112 1
  119   115   111 1
  120   116   115 1
  121   117   116 1
  122   118   116 1
  123   119   106 1
  124   119   110 1
  125   119   118 1
  126   120   101 1
  127   121   120 1
  128   122   104 1
  129   122   120 1
  130   123   122 1
  131   124   122 1
  132   125   120 1
  133   125   126 1
  134   127   126 1
  135   128   126 1
  136   129   126 1
  137   130   129 1
  138   131   130 1
  139   132   130 1
  140   133   130 1
  141   134   133 1
  142   135   133 1
  143   136   135 1
  144   137   136 1
  145   138   136 1
  146   139   138 1
  147   140   139 1
  148   141   139 1
  149   142   141 1
  150   143   142 1
  151   144   143 1
  152   145   144 1
  153   146   144 1
  154   147   143 1
  155   148   147 1
  156   149   148 1
  157   150   148 1
  158   151   138 1
  159   151   142 1
  160   151   150 1
  161   152   133 1
  162   153   152 1
  163   154   136 1
  164   154   152 1
  165   155   154 1
  166   156   154 1
  167   157   152 1
  168   157   158 1
  169   159   158 1
  170   160   158 1
  171   161   158 1
  172   162   161 1
  173   163   162 1
  174   164   162 1
  175   165   162 1
  176   166   165 1
  177   167   165 1
  178   168   167 1
  179   169   168 1
  180   170   168 1
  181   171   170 1
  182   172   171 1
  183   173   171 1
  184   174   173 1
  185   175   174 1
  186   176   175 1
  187   177   176 1
  188   178   176 1
  189   179   175 1
  190   180   179 1
  191   181   180 1
  192   182   180 1
  193   183   170 1
  194   183   174 1
  195   183   182 1
  196   184   165 1
  197   185   184 1
  198   186   168 1
  199   186   184 1
  200   187   186 1
  201   188   186 1
  202   189   184 1
  203   190   189 1
  204   192   191 1
  205   193   192 1
  206   194   193 1
  207   195   193 1
  208   196   193 1
  209   197   196 1
  210   198   196 1
  211   199   198 1
  212   200   199 1
  213   201   199 1
  214   202   201 1
  215   203   202 1
  216   204   202 1
  217   205   204 1
  218   206   205 1
  219   207   206 1
  220   208   206 1
  221   209   208 1
  222   210   208 1
  223   211   210 1
  224   212   211 1
  225   213   211 1
  226   214   210 1
  227   215   201 1
  228   215   205 1
  229   215   214 1
  230   216   196 1
  231   217   216 1
  232   218   199 1
  233   218   216 1
  234   219   218 1
  235   220   218 1
  236   221   216 1
  237   221   222 1
  238   223   222 1
  239   224   222 1
  240   225   222 1
  241   226   225 1
  242   227   226 1
  243   228   226 1
  244   229   226 1
  245   230   229 1
  246   231   229 1
  247   232   231 1
  248   233   232 1
  249   234   232 1
  250   235   234 1
  251   236   235 1
  252   237   235 1
  253   238   237 1
  254   239   238 1
  255   240   239 1
  256   241   239 1
  257   242   241 1
  258   243   241 1
  259   244   243 1
  260   245   244 1
  261   246   244 1
  262   247   243 1
  263   248   234 1
  264   248   238 1
  265   248   247 1
  266   249   229 1
  267   250   249 1
  268   251   232 1
  269   251   249 1
  270   252   251 1
  271   253   251 1
  272   254   249 1
  273   254   255 1
  274   256   255 1
  275   257   255 1
  276   258   255 1
  277   259   258 1
  278   260   259 1
  279   261   259 1
  280   262   259 1
  281   263   262 1
  282   264   262 1
  283   265   264 1
  284   266   265 1
  285   267   265 1
  286   268   267 1
  287   269   268 1
  288   270   268 1
  289   271   270 1
  290   272   271 1
  291   273   272 1
  292   274   272 1
  293   275   274 1
  294   276   274 1
  295   277   276 1
  296   278   277 1
  297   279   277 1
  298   280   276 1
  299   281   267 1
  300   281   271 1
  301   281   280 1
  302   282   262 1
  303   283   282 1
  304   284   265 1
  305   284   282 1
  306   285   284 1
  307   286   284 1
  308   287   282 1
  309   288   287 1
  310   290   289 1
  311   291   290 1
  312   292   291 1
  313   293   291 1
  314   294   291 1
  315   295   294 1
  316   296   294 1
  317   297   296 1
  318   298   297 1
  319   299   297 1
  320   300   299 1
  321   301   300 1
  322   302   300 1
  323   303   302 1
  324   304   302 1
  325   305   304 1
  326   306   305 1
  327   307   305 1
  328   308   304 1
  329   309   299 1
  330   309   308 1
  331   310   309 1
  332   311   294 1
  333   312   311 1
  334   313   297 1
  335   313   311 1
  336   314   313 1
  337   315   313 1
  338   316   311 1
  339   316   317 1
  340   318   317 1
  341   319   317 1
  342   320   317 1
  343   321   320 1
  344   322   321 1
  345   323   321 1
  346   324   321 1
  347   325   324 1
  348   326   324 1
  349   327   326 1
  350   328   327 1
  351   329   327 1
  352   330   329 1
  353   331   330 1
  354   332   330 1
  355   333   332 1
  356   334   332 1
  357   335   334 1
  358   336   335 1
  359   337   335 1
  360   338   334 1
  361   339   329 1
  362   339   338 1
  363   340   339 1
  364   341   324 1
  365   342   341 1
  366   343   327 1
  367   343   341 1
  368   344   343 1
  369   345   343 1
  370   346   341 1
  371   346   347 1
  372   348   347 1
  373   349   347 1
  374   350   347 1
  375   351   350 1
  376   352   351 1
  377   353   351 1
  378   354   351 1
  379   355   354 1
  380   356   354 1
  381   357   356 1
  382   358   357 1
  383   359   357 1
  384   360   359 1
  385   361   360 1
  386   362   360 1
  387   363   362 1
  388   364   362 1
  389   365   364 1
  390   366   365 1
  391   367   365 1
  392   368   364 1
  393   369   359 1
  394   369   368 1
  395   370   369 1
  396   371   354 1
  397   372   371 1
  398   373   357 1
  399   373   371 1
  400   374   373 1
  401   375   373 1
  402   376   371 1
  403   377   376 1
  404   407   408 1
  405   404   405 1
  406   404   406 1
  407   402   403 1
  408   402   404 1
  409   402   407 1
  410   400   401 1
  411   398   399 1
  412   398   400 1
  413   396   397 1
  414   396   398 1
  415   392   393 1
  416   392   394 1
  417   392   395 1
  418   391   392 1
  419   391   396 1
  420   389   390 1
  421   389   391 1
  422   388   389 1
  423   388   400 1
  424   386   387 1
  425   386   388 1
  426   386   404 1
  427   385   386 1
  428   383   384 1
  429   383   385 1
  430   383   402 1
  431   380   381 1
  432   380   382 1
  433   380   383 1
  434   379   380 1
  435   378   379 1
  436   438   439 1
  437   435   436 1
  438   435   437 1
  439   433   434 1
  440   433   435 1
  441   433   438 1
  442   431   432 1
  443   429   430 1
  444   429   431 1
  445   428   429 1
  446   425   426 1
  447   425   427 1
  448   424   425 1
  449   424   428 1
  450   423   424 1
  451   423   432 1
  452   422   423 1
  453   420   421 1
  454   420   422 1
  455   419   420 1
  456   419   432 1
  457   417   418 1
  458   417   419 1
  459   417   435 1
  460   416   417 1
  461   414   415 1
  462   414   416 1
  463   414   433 1
  464   411   412 1
  465   411   413 1
  466   411   414 1
  467   410   411 1
  468   409   410 1
  469   470   471 1
  470   467   468 1
  471   467   469 1
  472   465   466 1
  473   465   467 1
  474   465   470 1
  475   463   464 1
  476   460   461 1
  477   460   462 1
  478   459   460 1
  479   459   463 1
  480   457   458 1
  481   457   459 1
  482   455   456 1
  483   455   457 1
  484   454   455 1
  485   454   464 1
  486   453   454 1
  487   451   452 1
  488   451   453 1
  489   450   451 1
  490   450   464 1
  491   448   449 1
  492   448   450 1
  493   448   467 1
  494   447   448 1
  495   445   446 1
  496   445   447 1
  497   445   465 1
  498   442   443 1
  499   442   444 1
  500   442   445 1
  501   441   442 1
  502   440   441 1
  503   499   500 1
  504   496   497 1
  505   496   498 1
  506   494   495 1
  507   494   496 1
  508   494   499 1
  509   492   493 1
  510   491   492 1
  511   488   489 1
  512   488   490 1
  513   487   488 1
  514   487   491 1
  515   485   486 1
  516   485   487 1
  517   483   484 1
  518   483   485 1
  519   482   483 1
  520   482   492 1
  521   480   481 1
  522   480   482 1
  523   480   496 1
  524   479   480 1
  525   477   478 1
  526   477   479 1
  527   477   494 1
  528   474   475 1
  529   474   476 1
  530   474   477 1
  531   473   474 1
  532   472   473 1
@<TRIPOS>SUBSTRUCTURE
      1  DT5              1 ****               0 ****  **** 
      2   DT             31 ****               0 ****  **** 
      3  DT3             63 ****               0 ****  **** 
      4  DA5             96 ****               0 ****  **** 
      5   DA            126 ****               0 ****  **** 
      6  DA3            158 ****               0 ****  **** 
      7  DG5            191 ****               0 ****  **** 
      8   DG            222 ****               0 ****  **** 
      9  DG3            255 ****               0 ****  **** 
     10  DC5            289 ****               0 ****  **** 
     11   DC            317 ****               0 ****  **** 
     12  DC3            347 ****               0 ****  **** 
     13  DTN            378 ****               0 ****  **** 
     14  DAN            409 ****               0 ****  **** 
     15  DGN            440 ****               0 ****  **** 
     16  DCN            472 ****               0 ****  **** 
