@<TRIPOS>MOLECULE
LAL
 1037  1032    25     0     1 
SMALL
USER_CHARGES
@<TRIPOS>ATOM
  1 H12T   45.830831    7.857193   20.955035 hL    1 LAL     0.0258 ****
  2 C112   45.245831    7.244193   20.424035 cD    1 LAL    -0.1185 ****
  3 H12R   44.552831    6.883193   21.187035 hL    1 LAL     0.0258 ****
  4 H12S   45.952831    6.437193   20.213035 hL    1 LAL     0.0258 ****
  5 C111   44.437831    7.579193   19.151035 cD    1 LAL     0.0233 ****
  6 H11R   45.110831    7.911193   18.357035 hL    1 LAL     0.0083 ****
  7 H11S   43.755831    8.402193   19.374035 hL    1 LAL     0.0083 ****
  8 C110   43.622831    6.359193   18.671035 cD    1 LAL    -0.0196 ****
  9 H10R   43.031831    5.973193   19.505035 hL    1 LAL     0.0152 ****
 10 H10S   44.304831    5.565193   18.357035 hL    1 LAL     0.0152 ****
 11 C19    42.669831    6.722193   17.509035 cD    1 LAL    -0.0220 ****
 12 H9R    43.241831    7.095193   16.656035 hL    1 LAL     0.0059 ****
 13 H9S    41.994831    7.515193   17.834035 hL    1 LAL     0.0059 ****
 14 C18    41.832831    5.498193   17.088035 cD    1 LAL    -0.0209 ****
 15 H8R    41.334831    5.091193   17.971035 hL    1 LAL     0.0104 ****
 16 H8S    42.497831    4.726193   16.700035 hL    1 LAL     0.0104 ****
 17 C17    40.770831    5.846193   16.022035 cD    1 LAL    -0.0193 ****
 18 H7R    41.261831    6.168193   15.101035 hL    1 LAL     0.0112 ****
 19 H7S    40.162831    6.682193   16.374035 hL    1 LAL     0.0112 ****
 20 C16    39.868831    4.621193   15.738035 cD    1 LAL    -0.0196 ****
 21 H6R    39.634831    4.121193   16.680035 hL    1 LAL     0.0102 ****
 22 H6S    40.416831    3.900193   15.127035 hL    1 LAL     0.0102 ****
 23 C15    38.526831    4.976193   15.056035 cD    1 LAL    -0.0157 ****
 24 H5R    37.926831    5.569193   15.746035 hL    1 LAL     0.0096 ****
 25 H5S    37.976831    4.051193   14.873035 hL    1 LAL     0.0096 ****
 26 C14    38.688831    5.753193   13.729035 cD    1 LAL    -0.0241 ****
 27 H4R    39.468831    5.289193   13.124035 hL    1 LAL     0.0206 ****
 28 H4S    39.012831    6.772193   13.944035 hL    1 LAL     0.0206 ****
 29 C13    37.386831    5.796193   12.894035 cD    1 LAL     0.0015 ****
 30 H3R    37.129831    4.783193   12.577035 hL    1 LAL     0.0191 ****
 31 H3S    37.581831    6.380193   11.993035 hL    1 LAL     0.0191 ****
 32 C12    36.189831    6.417193   13.645035 cD    1 LAL    -0.1722 ****
 33 H2R    36.475831    7.367193   14.097035 hL    1 LAL     0.0544 ****
 34 H2S    35.863831    5.747193   14.439035 hL    1 LAL     0.0544 ****
 35 C11    35.036148    6.648522   12.701867 cC    2 PC      0.7989 ****
 36 O12    35.078620    6.377741   11.545974 oC    2 PC     -0.6275 ****
 37 O11    33.992126    7.181563   13.317880 oS    2 PC     -0.4249 ****
 38 C1     32.833746    7.451710   12.538568 cA    2 PC     -0.0021 ****
 39 HR     32.425534    6.526834   12.159846 hE    2 PC      0.1193 ****
 40 HS     33.096319    8.088790   11.706477 hE    2 PC      0.1193 ****
 41 C2     31.835028    8.131887   13.446997 cA    2 PC      0.0811 ****
 42 HX     31.712683    7.563304   14.353991 hE    2 PC      0.1312 ****
 43 C3     30.484743    8.334792   12.778260 cA    2 PC      0.0956 ****
 44 HA     30.589959    8.887576   11.854593 hE    2 PC      0.0691 ****
 45 HB     29.840244    8.893443   13.445429 hE    2 PC      0.0691 ****
 46 O31    29.946235    7.060563   12.530076 oT    2 PC     -0.4457 ****
 47 P31    28.529524    6.910868   11.786465 pA    2 PC      1.0766 ****
 48 O32    27.566239    7.235258   13.107265 oT    2 PC     -0.4457 ****
 49 C31    26.204717    7.295395   12.868044 cA    2 PC      0.3631 ****
 50 H1A    25.954826    7.085013   11.836306 hE    2 PC      0.0135 ****
 51 H1B    25.836123    8.295650   13.076430 hE    2 PC      0.0135 ****
 52 C32    25.436946    6.381569   13.813856 cA    2 PC     -0.2823 ****
 53 H2A    24.375942    6.539646   13.667121 hX    2 PC      0.1649 ****
 54 H2B    25.686779    6.628326   14.835654 hX    2 PC      0.1649 ****
 55 N31    25.653188    4.887873   13.681984 nA    2 PC      0.1986 ****
 56 C33    25.470165    4.429029   12.266751 cA    2 PC     -0.3960 ****
 57 H3A    24.522328    4.801316   11.902963 hX    2 PC      0.1948 ****
 58 H3B    25.461584    3.349203   12.265043 hX    2 PC      0.1948 ****
 59 H3C    26.298157    4.785850   11.672761 hX    2 PC      0.1948 ****
 60 C34    27.021902    4.472438   14.151722 cA    2 PC     -0.3960 ****
 61 H4A    27.193603    4.899719   15.127766 hX    2 PC      0.1948 ****
 62 H4B    27.754519    4.809614   13.440417 hX    2 PC      0.1948 ****
 63 H4C    27.028868    3.393775   14.212830 hX    2 PC      0.1948 ****
 64 C35    24.639343    4.223732   14.543657 cA    2 PC     -0.3960 ****
 65 H5A    24.760056    4.563757   15.561446 hX    2 PC      0.1948 ****
 66 H5B    24.782318    3.154483   14.499895 hX    2 PC      0.1948 ****
 67 H5C    23.648493    4.470483   14.190435 hX    2 PC      0.1948 ****
 68 O33    28.308939    5.477198   11.500334 oP    2 PC     -0.7931 ****
 69 O34    28.313997    7.971458   10.801263 oP    2 PC     -0.7931 ****
 70 O21    32.373545    9.414963   13.764280 oS    2 PC     -0.3909 ****
 71 C21    32.155957    9.935318   14.964986 cC    2 PC      0.7876 ****
 72 O22    31.497004    9.418451   15.808017 oC    2 PC     -0.6256 ****
 73 H12T   34.317260    1.979943   22.887092 hL    3 LAL     0.0258 ****
 74 C112   34.562786    2.909306   22.611491 cD    3 LAL    -0.1185 ****
 75 H12R   35.464754    2.734319   22.021091 hL    3 LAL     0.0258 ****
 76 H12S   34.874817    3.320538   23.575412 hL    3 LAL     0.0258 ****
 77 C111   33.682585    3.935245   21.864286 cD    3 LAL     0.0233 ****
 78 H11R   32.786841    4.156437   22.449355 hL    3 LAL     0.0083 ****
 79 H11S   33.360855    3.498299   20.916789 hL    3 LAL     0.0083 ****
 80 C110   34.461012    5.238710   21.584901 cD    3 LAL    -0.0196 ****
 81 H10R   35.404408    4.993222   21.091370 hL    3 LAL     0.0152 ****
 82 H10S   34.703537    5.729006   22.530918 hL    3 LAL     0.0152 ****
 83 C19    33.661834    6.206508   20.682182 cD    3 LAL    -0.0220 ****
 84 H9R    32.720171    6.479598   21.164483 hL    3 LAL     0.0059 ****
 85 H9S    33.425504    5.706263   19.741967 hL    3 LAL     0.0059 ****
 86 C18    34.485397    7.473486   20.378050 cD    3 LAL    -0.0209 ****
 87 H8R    35.455260    7.174774   19.973724 hL    3 LAL     0.0104 ****
 88 H8S    34.668377    8.013104   21.307610 hL    3 LAL     0.0104 ****
 89 C17    33.781850    8.408434   19.369984 cD    3 LAL    -0.0193 ****
 90 H7R    32.852531    8.786707   19.801589 hL    3 LAL     0.0112 ****
 91 H7S    33.516168    7.843169   18.474243 hL    3 LAL     0.0112 ****
 92 C16    34.707087    9.590100   18.992509 cD    3 LAL    -0.0196 ****
 93 H6R    35.726108    9.220754   18.860984 hL    3 LAL     0.0102 ****
 94 H6S    34.736256   10.306535   19.816727 hL    3 LAL     0.0102 ****
 95 C15    34.302467   10.309334   17.684419 cD    3 LAL    -0.0157 ****
 96 H5R    34.429684    9.620449   16.849553 hL    3 LAL     0.0096 ****
 97 H5S    34.992600   11.138629   17.518288 hL    3 LAL     0.0096 ****
 98 C14    32.849403   10.838006   17.688037 cD    3 LAL    -0.0241 ****
 99 H4R    32.641223   11.334983   18.636402 hL    3 LAL     0.0206 ****
100 H4S    32.158797    9.997679   17.607563 hL    3 LAL     0.0206 ****
101 C13    32.570783   11.840185   16.542487 cD    3 LAL     0.0015 ****
102 H3R    33.177751   12.735529   16.693010 hL    3 LAL     0.0191 ****
103 H3S    31.523843   12.141867   16.604012 hL    3 LAL     0.0191 ****
104 C12    32.845410   11.265466   15.136525 cD    3 LAL    -0.1722 ****
105 H2R    32.476151   11.969339   14.390327 hL    3 LAL     0.0544 ****
106 H2S    33.919829   11.140389   15.011662 hL    3 LAL     0.0544 ****
107 H14T   46.366831    7.995193   23.168035 hL    4 MY      0.0255 ****
108 C114   46.761831    8.221193   22.278035 cD    4 MY     -0.1117 ****
109 H14R   47.455831    7.386193   22.152035 hL    4 MY      0.0255 ****
110 H14S   47.362831    9.105193   22.509035 hL    4 MY      0.0255 ****
111 C113   46.009831    8.482193   20.950035 cD    4 MY      0.0175 ****
112 H13R   46.733831    8.798193   20.194035 hL    4 MY      0.0075 ****
113 H13S   45.314831    9.312193   21.091035 hL    4 MY      0.0075 ****
114 C112   45.245831    7.244193   20.424035 cD    4 MY     -0.0281 ****
115 H12R   44.552831    6.883193   21.187035 hL    4 MY      0.0172 ****
116 H12S   45.952831    6.437193   20.213035 hL    4 MY      0.0172 ****
117 C111   44.437831    7.579193   19.151035 cD    4 MY     -0.0318 ****
118 H11R   45.110831    7.911193   18.357035 hL    4 MY      0.0127 ****
119 H11S   43.755831    8.402193   19.374035 hL    4 MY      0.0127 ****
120 C110   43.622831    6.359193   18.671035 cD    4 MY     -0.0210 ****
121 H10R   43.031831    5.973193   19.505035 hL    4 MY      0.0100 ****
122 H10S   44.304831    5.565193   18.357035 hL    4 MY      0.0100 ****
123 C19    42.669831    6.722193   17.509035 cD    4 MY     -0.0147 ****
124 H9R    43.241831    7.095193   16.656035 hL    4 MY      0.0102 ****
125 H9S    41.994831    7.515193   17.834035 hL    4 MY      0.0102 ****
126 C18    41.832831    5.498193   17.088035 cD    4 MY     -0.0265 ****
127 H8R    41.334831    5.091193   17.971035 hL    4 MY      0.0112 ****
128 H8S    42.497831    4.726193   16.700035 hL    4 MY      0.0112 ****
129 C17    40.770831    5.846193   16.022035 cD    4 MY     -0.0044 ****
130 H7R    41.261831    6.168193   15.101035 hL    4 MY      0.0068 ****
131 H7S    40.162831    6.682193   16.374035 hL    4 MY      0.0068 ****
132 C16    39.868831    4.621193   15.738035 cD    4 MY     -0.0278 ****
133 H6R    39.634831    4.121193   16.680035 hL    4 MY      0.0115 ****
134 H6S    40.416831    3.900193   15.127035 hL    4 MY      0.0115 ****
135 C15    38.526831    4.976193   15.056035 cD    4 MY     -0.0165 ****
136 H5R    37.926831    5.569193   15.746035 hL    4 MY      0.0106 ****
137 H5S    37.976831    4.051193   14.873035 hL    4 MY      0.0106 ****
138 C14    38.688831    5.753193   13.729035 cD    4 MY     -0.0270 ****
139 H4R    39.468831    5.289193   13.124035 hL    4 MY      0.0204 ****
140 H4S    39.012831    6.772193   13.944035 hL    4 MY      0.0204 ****
141 C13    37.386831    5.796193   12.894035 cD    4 MY     -0.0024 ****
142 H3R    37.129831    4.783193   12.577035 hL    4 MY      0.0189 ****
143 H3S    37.581831    6.380193   11.993035 hL    4 MY      0.0189 ****
144 C12    36.189831    6.417193   13.645035 cD    4 MY     -0.1642 ****
145 H2R    36.475831    7.367193   14.097035 hL    4 MY      0.0539 ****
146 H2S    35.863831    5.747193   14.439035 hL    4 MY      0.0539 ****
147 C11    35.036148    6.648522   12.701867 cC    5 PC      0.7989 ****
148 O12    35.078620    6.377741   11.545974 oC    5 PC     -0.6275 ****
149 O11    33.992126    7.181563   13.317880 oS    5 PC     -0.4249 ****
150 C1     32.833746    7.451710   12.538568 cA    5 PC     -0.0021 ****
151 HR     32.425534    6.526834   12.159846 hE    5 PC      0.1193 ****
152 HS     33.096319    8.088790   11.706477 hE    5 PC      0.1193 ****
153 C2     31.835028    8.131887   13.446997 cA    5 PC      0.0811 ****
154 HX     31.712683    7.563304   14.353991 hE    5 PC      0.1312 ****
155 C3     30.484743    8.334792   12.778260 cA    5 PC      0.0956 ****
156 HA     30.589959    8.887576   11.854593 hE    5 PC      0.0691 ****
157 HB     29.840244    8.893443   13.445429 hE    5 PC      0.0691 ****
158 O31    29.946235    7.060563   12.530076 oT    5 PC     -0.4457 ****
159 P31    28.529524    6.910868   11.786465 pA    5 PC      1.0766 ****
160 O32    27.566239    7.235258   13.107265 oT    5 PC     -0.4457 ****
161 C31    26.204717    7.295395   12.868044 cA    5 PC      0.3631 ****
162 H1A    25.954826    7.085013   11.836306 hE    5 PC      0.0135 ****
163 H1B    25.836123    8.295650   13.076430 hE    5 PC      0.0135 ****
164 C32    25.436946    6.381569   13.813856 cA    5 PC     -0.2823 ****
165 H2A    24.375942    6.539646   13.667121 hX    5 PC      0.1649 ****
166 H2B    25.686779    6.628326   14.835654 hX    5 PC      0.1649 ****
167 N31    25.653188    4.887873   13.681984 nA    5 PC      0.1986 ****
168 C33    25.470165    4.429029   12.266751 cA    5 PC     -0.3960 ****
169 H3A    24.522328    4.801316   11.902963 hX    5 PC      0.1948 ****
170 H3B    25.461584    3.349203   12.265043 hX    5 PC      0.1948 ****
171 H3C    26.298157    4.785850   11.672761 hX    5 PC      0.1948 ****
172 C34    27.021902    4.472438   14.151722 cA    5 PC     -0.3960 ****
173 H4A    27.193603    4.899719   15.127766 hX    5 PC      0.1948 ****
174 H4B    27.754519    4.809614   13.440417 hX    5 PC      0.1948 ****
175 H4C    27.028868    3.393775   14.212830 hX    5 PC      0.1948 ****
176 C35    24.639343    4.223732   14.543657 cA    5 PC     -0.3960 ****
177 H5A    24.760056    4.563757   15.561446 hX    5 PC      0.1948 ****
178 H5B    24.782318    3.154483   14.499895 hX    5 PC      0.1948 ****
179 H5C    23.648493    4.470483   14.190435 hX    5 PC      0.1948 ****
180 O33    28.308939    5.477198   11.500334 oP    5 PC     -0.7931 ****
181 O34    28.313997    7.971458   10.801263 oP    5 PC     -0.7931 ****
182 O21    32.373545    9.414963   13.764280 oS    5 PC     -0.3909 ****
183 C21    32.155957    9.935318   14.964986 cC    5 PC      0.7876 ****
184 O22    31.497004    9.418451   15.808017 oC    5 PC     -0.6256 ****
185 H14T   35.501048    0.044287   23.122867 hL    6 MY      0.0255 ****
186 C114   34.683482    0.481792   23.496199 cD    6 MY     -0.1117 ****
187 H14R   35.072994    0.847561   24.449735 hL    6 MY      0.0255 ****
188 H14S   34.043145   -0.376143   23.719655 hL    6 MY      0.0255 ****
189 C113   33.811215    1.575417   22.832616 cD    6 MY      0.0175 ****
190 H13R   32.940367    1.761430   23.467117 hL    6 MY      0.0075 ****
191 H13S   33.435139    1.201276   21.878472 hL    6 MY      0.0075 ****
192 C112   34.562786    2.909306   22.611491 cD    6 MY     -0.0281 ****
193 H12R   35.464754    2.734319   22.021091 hL    6 MY      0.0172 ****
194 H12S   34.874817    3.320538   23.575412 hL    6 MY      0.0172 ****
195 C111   33.682585    3.935245   21.864286 cD    6 MY     -0.0318 ****
196 H11R   32.786841    4.156437   22.449355 hL    6 MY      0.0127 ****
197 H11S   33.360855    3.498299   20.916789 hL    6 MY      0.0127 ****
198 C110   34.461012    5.238710   21.584901 cD    6 MY     -0.0210 ****
199 H10R   35.404408    4.993222   21.091370 hL    6 MY      0.0100 ****
200 H10S   34.703537    5.729006   22.530918 hL    6 MY      0.0100 ****
201 C19    33.661834    6.206508   20.682182 cD    6 MY     -0.0147 ****
202 H9R    32.720171    6.479598   21.164483 hL    6 MY      0.0102 ****
203 H9S    33.425504    5.706263   19.741967 hL    6 MY      0.0102 ****
204 C18    34.485397    7.473486   20.378050 cD    6 MY     -0.0265 ****
205 H8R    35.455260    7.174774   19.973724 hL    6 MY      0.0112 ****
206 H8S    34.668377    8.013104   21.307610 hL    6 MY      0.0112 ****
207 C17    33.781850    8.408434   19.369984 cD    6 MY     -0.0044 ****
208 H7R    32.852531    8.786707   19.801589 hL    6 MY      0.0068 ****
209 H7S    33.516168    7.843169   18.474243 hL    6 MY      0.0068 ****
210 C16    34.707087    9.590100   18.992509 cD    6 MY     -0.0278 ****
211 H6R    35.726108    9.220754   18.860984 hL    6 MY      0.0115 ****
212 H6S    34.736256   10.306535   19.816727 hL    6 MY      0.0115 ****
213 C15    34.302467   10.309334   17.684419 cD    6 MY     -0.0165 ****
214 H5R    34.429684    9.620449   16.849553 hL    6 MY      0.0106 ****
215 H5S    34.992600   11.138629   17.518288 hL    6 MY      0.0106 ****
216 C14    32.849403   10.838006   17.688037 cD    6 MY     -0.0270 ****
217 H4R    32.641223   11.334983   18.636402 hL    6 MY      0.0204 ****
218 H4S    32.158797    9.997679   17.607563 hL    6 MY      0.0204 ****
219 C13    32.570783   11.840185   16.542487 cD    6 MY     -0.0024 ****
220 H3R    33.177751   12.735529   16.693010 hL    6 MY      0.0189 ****
221 H3S    31.523843   12.141867   16.604012 hL    6 MY      0.0189 ****
222 C12    32.845410   11.265466   15.136525 cD    6 MY     -0.1642 ****
223 H2R    32.476151   11.969339   14.390327 hL    6 MY      0.0539 ****
224 H2S    33.919829   11.140389   15.011662 hL    6 MY      0.0539 ****
225 C116  -36.887169   -3.288807    1.060035 cD    7 PA     -0.1254 ****
226 H16R  -37.269169   -3.877807    0.232035 hL    7 PA      0.0290 ****
227 H16S  -37.484169   -2.383807    1.126035 hL    7 PA      0.0290 ****
228 H16T  -37.049169   -3.856807    1.972035 hL    7 PA      0.0290 ****
229 C115  -35.406169   -2.961807    0.872035 cD    7 PA      0.0140 ****
230 H15R  -35.273169   -2.416807   -0.060965 hL    7 PA      0.0093 ****
231 H15S  -34.849169   -3.888807    0.766035 hL    7 PA      0.0093 ****
232 C114  -34.834169   -2.132807    2.025035 cD    7 PA     -0.0201 ****
233 H14R  -34.927169   -2.696807    2.953035 hL    7 PA      0.0159 ****
234 H14S  -35.449169   -1.243807    2.150035 hL    7 PA      0.0159 ****
235 C113  -33.376169   -1.693807    1.844035 cD    7 PA     -0.0331 ****
236 H13R  -33.125169   -1.000807    2.644035 hL    7 PA      0.0146 ****
237 H13S  -33.285169   -1.129807    0.917035 hL    7 PA      0.0146 ****
238 C112  -32.355169   -2.833807    1.846035 cD    7 PA     -0.0276 ****
239 H12R  -32.545169   -3.505807    1.013035 hL    7 PA      0.0114 ****
240 H12S  -32.481169   -3.425807    2.751035 hL    7 PA      0.0114 ****
241 C111  -30.909169   -2.338807    1.764035 cD    7 PA     -0.0252 ****
242 H11R  -30.709169   -1.674807    2.603035 hL    7 PA      0.0143 ****
243 H11S  -30.785169   -1.738807    0.865035 hL    7 PA      0.0143 ****
244 C110  -29.881169   -3.471807    1.760035 cD    7 PA     -0.0288 ****
245 H10R  -30.080169   -4.134807    0.920035 hL    7 PA      0.0147 ****
246 H10S  -30.006169   -4.073807    2.659035 hL    7 PA      0.0147 ****
247 C19   -28.436169   -2.976807    1.681035 cD    7 PA     -0.0305 ****
248 H9R   -28.237169   -2.313807    2.522035 hL    7 PA      0.0139 ****
249 H9S   -28.310169   -2.374807    0.783035 hL    7 PA      0.0139 ****
250 C18   -27.407169   -4.109807    1.677035 cD    7 PA     -0.0158 ****
251 H8R   -27.608169   -4.773807    0.839035 hL    7 PA      0.0091 ****
252 H8S   -27.531169   -4.710807    2.577035 hL    7 PA      0.0091 ****
253 C17   -25.962169   -3.614807    1.596035 cD    7 PA     -0.0196 ****
254 H7R   -25.771169   -2.941807    2.429035 hL    7 PA      0.0110 ****
255 H7S   -25.835169   -3.022807    0.690035 hL    7 PA      0.0110 ****
256 C16   -24.940169   -4.755807    1.599035 cD    7 PA     -0.0244 ****
257 H6R   -25.192169   -5.449807    0.800035 hL    7 PA      0.0133 ****
258 H6S   -25.030169   -5.317807    2.527035 hL    7 PA      0.0133 ****
259 C15   -23.483169   -4.314807    1.414035 cD    7 PA     -0.0294 ****
260 H5R   -23.398169   -3.769807    0.477035 hL    7 PA      0.0168 ****
261 H5S   -22.866169   -5.204807    1.305035 hL    7 PA      0.0168 ****
262 C14   -22.927169   -3.471807    2.567035 cD    7 PA     -0.0301 ****
263 H4R   -23.135169   -3.983807    3.505035 hL    7 PA      0.0209 ****
264 H4S   -23.446169   -2.518807    2.619035 hL    7 PA      0.0209 ****
265 C13   -21.418169   -3.215807    2.493035 cD    7 PA     -0.0049 ****
266 H3R   -20.886169   -4.160807    2.457035 hL    7 PA      0.0190 ****
267 H3S   -21.106169   -2.713807    3.405035 hL    7 PA      0.0190 ****
268 C12   -20.998169   -2.352807    1.291035 cD    7 PA     -0.1493 ****
269 H2R   -21.542169   -1.416807    1.288035 hL    7 PA      0.0473 ****
270 H2S   -21.199169   -2.874807    0.363035 hL    7 PA      0.0473 ****
271 C11   -19.522864   -2.046104    1.349974 cC    8 PE      0.7854 ****
272 O12   -18.812864   -2.434880    2.221113 oC    8 PE     -0.6206 ****
273 O11   -19.130541   -1.303688    0.327289 oS    8 PE     -0.4260 ****
274 C1    -17.756497   -0.942654    0.270937 cA    8 PE      0.0100 ****
275 HR    -17.143448   -1.825831    0.334222 hE    8 PE      0.1157 ****
276 HS    -17.521877   -0.293891    1.102795 hE    8 PE      0.1157 ****
277 C2    -17.528267   -0.238043   -1.047583 cA    8 PE      0.1379 ****
278 HX    -17.904201   -0.842258   -1.858093 hE    8 PE      0.1245 ****
279 C3    -16.059460    0.088132   -1.281744 cA    8 PE     -0.0559 ****
280 HA    -15.683929    0.718499   -0.487447 hE    8 PE      0.1087 ****
281 HB    -15.948983    0.615090   -2.218393 hE    8 PE      0.1087 ****
282 O31   -15.347432   -1.128207   -1.352609 oT    8 PE     -0.3876 ****
283 P31   -13.934866   -1.305186   -0.641078 pA    8 PE      1.0705 ****
284 O32   -14.467687   -1.472606    0.916563 oT    8 PE     -0.3876 ****
285 C31   -13.557481   -1.392783    1.969778 cA    8 PE     -0.0040 ****
286 H1A   -14.129257   -1.519055    2.880659 hE    8 PE      0.1017 ****
287 H1B   -13.066694   -0.428487    1.996228 hE    8 PE      0.1017 ****
288 C32   -12.484395   -2.486163    1.870662 cA    8 PE      0.0882 ****
289 H2A   -11.692703   -2.195605    1.196976 hX    8 PE      0.0904 ****
290 H2B   -12.063695   -2.710108    2.841367 hX    8 PE      0.0904 ****
291 N31   -13.086276   -3.719293    1.286037 nA    8 PE     -0.3510 ****
292 HN1A  -13.950455   -3.971018    1.736688 hN    8 PE      0.3427 ****
293 HN1B  -13.294032   -3.465797    0.245567 hN    8 PE      0.3427 ****
294 HN1C  -12.458783   -4.503934    1.327991 hN    8 PE      0.3427 ****
295 O33   -13.081272   -0.122826   -0.714391 oP    8 PE     -0.8006 ****
296 O34   -13.430193   -2.671794   -0.989384 oP    8 PE     -0.8006 ****
297 O21   -18.245397    0.991944   -0.998181 oS    8 PE     -0.4123 ****
298 C21   -18.839364    1.444643   -2.098997 cC    8 PE      0.7928 ****
299 O22   -18.778404    0.906867   -3.155034 oC    8 PE     -0.6242 ****
300 C116   -7.988059    7.414553  -11.671304 cD    9 PA     -0.1254 ****
301 H16R   -7.386149    6.592472  -12.045891 hL    9 PA      0.0290 ****
302 H16S   -7.312166    8.209823  -11.370466 hL    9 PA      0.0290 ****
303 H16T   -8.588077    7.787684  -12.496751 hL    9 PA      0.0290 ****
304 C115   -8.871867    6.969820  -10.506516 cD    9 PA      0.0140 ****
305 H15R   -8.244735    6.577584   -9.707731 hL    9 PA      0.0093 ****
306 H15S   -9.500789    6.146066  -10.833168 hL    9 PA      0.0093 ****
307 C114   -9.737008    8.106203   -9.955155 cD    9 PA     -0.0201 ****
308 H14R  -10.396479    8.469758  -10.743097 hL    9 PA      0.0159 ****
309 H14S   -9.088090    8.940645   -9.696730 hL    9 PA      0.0159 ****
310 C113  -10.574113    7.741683   -8.723235 cD    9 PA     -0.0331 ****
311 H13R  -11.030808    8.650725   -8.338107 hL    9 PA      0.0146 ****
312 H13S   -9.913763    7.379533   -7.936793 hL    9 PA      0.0146 ****
313 C112  -11.675676    6.709662   -8.975297 cD    9 PA     -0.0276 ****
314 H12R  -11.237929    5.768573   -9.298256 hL    9 PA      0.0114 ****
315 H12S  -12.305385    7.051027   -9.795237 hL    9 PA      0.0114 ****
316 C111  -12.546444    6.454447   -7.742700 cD    9 PA     -0.0252 ****
317 H11R  -12.997615    7.391652   -7.421909 hL    9 PA      0.0143 ****
318 H11S  -11.916439    6.122908   -6.920050 hL    9 PA      0.0143 ****
319 C110  -13.647462    5.419906   -7.983477 cD    9 PA     -0.0288 ****
320 H10R  -13.196127    4.482237   -8.302607 hL    9 PA      0.0147 ****
321 H10S  -14.277332    5.750584   -8.808187 hL    9 PA      0.0147 ****
322 C19   -14.519292    5.167201   -6.752484 cD    9 PA     -0.0305 ****
323 H9R   -14.971228    6.105592   -6.433696 hL    9 PA      0.0139 ****
324 H9S   -13.890763    4.836905   -5.927536 hL    9 PA      0.0139 ****
325 C18   -15.621051    4.132319   -6.992681 cD    9 PA     -0.0158 ****
326 H8R   -15.169740    3.196177   -7.314393 hL    9 PA      0.0091 ****
327 H8S   -16.251959    4.463979   -7.816413 hL    9 PA      0.0091 ****
328 C17   -16.491679    3.878168   -5.761006 cD    9 PA     -0.0196 ****
329 H7R   -16.929863    4.819516   -5.436727 hL    9 PA      0.0110 ****
330 H7S   -15.862109    3.535739   -4.940145 hL    9 PA      0.0110 ****
331 C16   -17.594886    2.845927   -6.013569 cD    9 PA     -0.0244 ****
332 H6R   -17.138355    1.937348   -6.400358 hL    9 PA      0.0133 ****
333 H6S   -18.255971    3.209660   -6.798293 hL    9 PA      0.0133 ****
334 C15   -18.428242    2.480059   -4.779384 cD    9 PA     -0.0294 ****
335 H5R   -17.763194    2.101311   -4.007064 hL    9 PA      0.0168 ****
336 H5S   -19.088556    1.655899   -5.042851 hL    9 PA      0.0168 ****
337 C14   -19.277309    3.630315   -4.226942 cD    9 PA     -0.0301 ****
338 H4R   -19.841971    4.071588   -5.046508 hL    9 PA      0.0209 ****
339 H4S   -18.636187    4.417696   -3.840590 hL    9 PA      0.0209 ****
340 C13   -20.271817    3.215759   -3.137360 cD    9 PA     -0.0049 ****
341 H3R   -20.929750    2.440315   -3.515718 hL    9 PA      0.0190 ****
342 H3S   -20.898738    4.070159   -2.896395 hL    9 PA      0.0190 ****
343 C12   -19.599160    2.722260   -1.845089 cD    9 PA     -0.1493 ****
344 H2R   -18.919115    3.486680   -1.491195 hL    9 PA      0.0473 ****
345 H2S   -20.363579    2.549651   -1.096799 hL    9 PA      0.0473 ****
346 C12   -20.459169   -3.050807    1.768035 cD   10 OL     -0.1434 ****
347 H2R   -20.680169   -3.944807    2.342035 hL   10 OL      0.0429 ****
348 H2S   -20.756169   -2.213807    2.395035 hL   10 OL      0.0429 ****
349 C13   -21.203169   -3.029807    0.434035 cD   10 OL      0.0016 ****
350 H3R   -20.877169   -2.162807   -0.129965 hL   10 OL      0.0195 ****
351 H3S   -20.912169   -3.895807   -0.151965 hL   10 OL      0.0195 ****
352 C14   -22.728169   -2.988807    0.580035 cD   10 OL     -0.0230 ****
353 H4R   -23.007169   -2.110807    1.157035 hL   10 OL      0.0181 ****
354 H4S   -23.158169   -2.850807   -0.408965 hL   10 OL      0.0181 ****
355 C15   -23.340169   -4.246807    1.208035 cD   10 OL     -0.0167 ****
356 H5R   -22.949169   -5.118807    0.687035 hL   10 OL      0.0087 ****
357 H5S   -23.021169   -4.342807    2.243035 hL   10 OL      0.0087 ****
358 C16   -24.872169   -4.299807    1.155035 cD   10 OL     -0.0238 ****
359 H6R   -25.198169   -4.219807    0.120035 hL   10 OL      0.0093 ****
360 H6S   -25.194169   -5.280807    1.499035 hL   10 OL      0.0093 ****
361 C17   -25.578169   -3.230807    1.994035 cD   10 OL     -0.0175 ****
362 H7R   -25.217169   -3.282807    3.020035 hL   10 OL      0.0196 ****
363 H7S   -25.328169   -2.237807    1.631035 hL   10 OL      0.0196 ****
364 C18   -27.105169   -3.386807    1.985035 cD   10 OL      0.0318 ****
365 H8R   -27.467169   -3.330807    0.965035 hL   10 OL      0.0327 ****
366 H8S   -27.358169   -4.382807    2.346035 hL   10 OL      0.0327 ****
367 C19   -27.789169   -2.368807    2.861035 cB   10 OL     -0.2442 ****
368 H9R   -27.542169   -2.447807    3.909035 hB   10 OL      0.1315 ****
369 C110  -28.625169   -1.405807    2.510035 cB   10 OL     -0.2393 ****
370 H10R  -29.005169   -0.772807    3.299035 hB   10 OL      0.1269 ****
371 C111  -29.135169   -1.049807    1.137035 cD   10 OL      0.0291 ****
372 H11R  -28.819169   -0.032807    0.911035 hL   10 OL      0.0335 ****
373 H11S  -28.691169   -1.681807    0.376035 hL   10 OL      0.0335 ****
374 C112  -30.667169   -1.113807    1.024035 cD   10 OL     -0.0264 ****
375 H12R  -31.109169   -0.483807    1.795035 hL   10 OL      0.0197 ****
376 H12S  -30.962169   -0.678807    0.071035 hL   10 OL      0.0197 ****
377 C113  -31.240169   -2.527807    1.130035 cD   10 OL     -0.0183 ****
378 H13R  -30.797169   -3.150807    0.353035 hL   10 OL      0.0138 ****
379 H13S  -30.946169   -2.969807    2.078035 hL   10 OL      0.0138 ****
380 C114  -32.764169   -2.567807    1.000035 cD   10 OL     -0.0248 ****
381 H14R  -33.200169   -1.932807    1.768035 hL   10 OL      0.0086 ****
382 H14S  -33.058169   -2.135807    0.045035 hL   10 OL      0.0086 ****
383 C115  -33.333169   -3.985807    1.109035 cD   10 OL     -0.0232 ****
384 H15R  -32.832169   -4.618807    0.379035 hL   10 OL      0.0104 ****
385 H15S  -33.083169   -4.399807    2.082035 hL   10 OL      0.0104 ****
386 C116  -34.845169   -4.090807    0.866035 cD   10 OL     -0.0125 ****
387 H16R  -35.060169   -3.737807   -0.140965 hL   10 OL      0.0137 ****
388 H16S  -35.124169   -5.142807    0.883035 hL   10 OL      0.0137 ****
389 C117  -35.745169   -3.332807    1.851035 cD   10 OL      0.0087 ****
390 H17R  -35.544169   -2.265807    1.796035 hL   10 OL      0.0100 ****
391 H17S  -36.776169   -3.456807    1.527035 hL   10 OL      0.0100 ****
392 C118  -35.627169   -3.798807    3.303035 cD   10 OL     -0.1173 ****
393 H18R  -36.349169   -3.286807    3.932035 hL   10 OL      0.0266 ****
394 H18S  -34.642169   -3.602807    3.713035 hL   10 OL      0.0266 ****
395 H18T  -35.813169   -4.865807    3.387035 hL   10 OL      0.0266 ****
396 C11   -18.968641   -3.009013    1.542995 cC   11 PE      0.7854 ****
397 O12   -18.475923   -2.966050    0.461554 oC   11 PE     -0.6206 ****
398 O11   -18.295534   -3.026049    2.682127 oS   11 PE     -0.4260 ****
399 C1    -16.876294   -2.993963    2.603106 cA   11 PE      0.0100 ****
400 HR    -16.562063   -2.152647    2.008731 hE   11 PE      0.1157 ****
401 HS    -16.522531   -3.902694    2.137285 hE   11 PE      0.1157 ****
402 C2    -16.348032   -2.866744    4.014423 cA   11 PE      0.1379 ****
403 HX    -16.824520   -2.037325    4.512773 hE   11 PE      0.1245 ****
404 C3    -14.835525   -2.694897    4.051932 cA   11 PE     -0.0559 ****
405 HA    -14.350366   -3.538060    3.579713 hE   11 PE      0.1087 ****
406 HB    -14.501493   -2.638037    5.077792 hE   11 PE      0.1087 ****
407 O31   -14.516540   -1.485916    3.397638 oT   11 PE     -0.3876 ****
408 P31   -13.280048   -1.383314    2.400893 pA   11 PE      1.0705 ****
409 O32   -13.955635   -2.147045    1.097639 oT   11 PE     -0.3876 ****
410 C31   -13.146241   -2.542533    0.033411 cA   11 PE     -0.0040 ****
411 H1A   -13.797290   -3.023229   -0.686064 hE   11 PE      0.1017 ****
412 H1B   -12.393086   -3.251758    0.351522 hE   11 PE      0.1017 ****
413 C32   -12.444898   -1.341790   -0.617088 cA   11 PE      0.0882 ****
414 H2A   -11.553618   -1.068961   -0.072811 hX   11 PE      0.0904 ****
415 H2B   -12.185665   -1.550810   -1.645931 hX   11 PE      0.0904 ****
416 N31   -13.341573   -0.151477   -0.555555 nA   11 PE     -0.3510 ****
417 HN1A  -14.273194   -0.360377   -0.874460 hN   11 PE      0.3427 ****
418 HN1B  -13.384100    0.115317    0.501334 hN   11 PE      0.3427 ****
419 HN1C  -12.982513    0.621557   -1.089094 hN   11 PE      0.3427 ****
420 O33   -12.108983   -2.143718    2.827936 oP   11 PE     -0.8006 ****
421 O34   -13.182087    0.044912    1.960210 oP   11 PE     -0.8006 ****
422 O21   -16.666155   -4.077429    4.694587 oS   11 PE     -0.4123 ****
423 C21   -17.011883   -4.032209    5.978315 cC   11 PE      0.7928 ****
424 O22   -17.034219   -3.037494    6.624978 oC   11 PE     -0.6242 ****
425 C12   -17.371933   -5.395208    6.513723 cD   12 OL     -0.1434 ****
426 H2R   -16.521480   -6.062222    6.416891 hL   12 OL      0.0429 ****
427 H2S   -18.210473   -5.799377    5.952114 hL   12 OL      0.0429 ****
428 C13   -17.763009   -5.305621    7.987686 cD   12 OL      0.0016 ****
429 H3R   -18.665293   -4.709704    8.070314 hL   12 OL      0.0195 ****
430 H3S   -18.022700   -6.295205    8.350062 hL   12 OL      0.0195 ****
431 C14   -16.675079   -4.694532    8.877406 cD   12 OL     -0.0230 ****
432 H4R   -16.433604   -3.699586    8.512130 hL   12 OL      0.0181 ****
433 H4S   -17.090100   -4.559419    9.873181 hL   12 OL      0.0181 ****
434 C15   -15.398917   -5.537300    8.989849 cD   12 OL     -0.0167 ****
435 H5R   -15.679835   -6.558888    9.239148 hL   12 OL      0.0087 ****
436 H5S   -14.895785   -5.586756    8.027241 hL   12 OL      0.0087 ****
437 C16   -14.402475   -5.039850   10.044500 cD   12 OL     -0.0238 ****
438 H6R   -14.895132   -5.002588   11.013933 hL   12 OL      0.0093 ****
439 H6S   -13.605399   -5.774922   10.137882 hL   12 OL      0.0093 ****
440 C17   -13.777046   -3.675627    9.739784 cD   12 OL     -0.0175 ****
441 H7R   -13.323649   -3.701122    8.750096 hL   12 OL      0.0196 ****
442 H7S   -14.543419   -2.906302    9.706176 hL   12 OL      0.0196 ****
443 C18   -12.717378   -3.268218   10.772870 cD   12 OL      0.0318 ****
444 H8R   -13.167643   -3.237786   11.758220 hL   12 OL      0.0327 ****
445 H8S   -11.949238   -4.039517   10.810349 hL   12 OL      0.0327 ****
446 C19   -12.063561   -1.953373   10.433370 cB   12 OL     -0.2442 ****
447 H9R   -11.510570   -1.959203    9.506159 hB   12 OL      0.1315 ****
448 C110  -12.093842   -0.817061   11.109642 cB   12 OL     -0.2393 ****
449 H10R  -11.557026    0.020544   10.687911 hB   12 OL      0.1269 ****
450 C111  -12.787575   -0.509624   12.412017 cD   12 OL      0.0291 ****
451 H11R  -13.516479    0.278337   12.230255 hL   12 OL      0.0335 ****
452 H11S  -13.348666   -1.365283   12.770773 hL   12 OL      0.0335 ****
453 C112  -11.826455   -0.031241   13.512602 cD   12 OL     -0.0264 ****
454 H12R  -11.259397    0.823345   13.145406 hL   12 OL      0.0197 ****
455 H12S  -12.415667    0.333738   14.351695 hL   12 OL      0.0197 ****
456 C113  -10.861289   -1.109491   14.007366 cD   12 OL     -0.0183 ****
457 H13R  -11.435503   -1.958891   14.377373 hL   12 OL      0.0138 ****
458 H13S  -10.272135   -1.481296   13.173603 hL   12 OL      0.0138 ****
459 C114   -9.925379   -0.614449   15.111939 cD   12 OL     -0.0248 ****
460 H14R   -9.366079    0.242121   14.742322 hL   12 OL      0.0086 ****
461 H14S  -10.515466   -0.252890   15.952271 hL   12 OL      0.0086 ****
462 C115   -8.959424   -1.697380   15.602406 cD   12 OL     -0.0232 ****
463 H15R   -9.537466   -2.569956   15.900850 hL   12 OL      0.0104 ****
464 H15S   -8.335058   -2.023775   14.775207 hL   12 OL      0.0104 ****
465 C116   -8.081763   -1.283341   16.791734 cD   12 OL     -0.0125 ****
466 H16R   -8.729228   -1.030811   17.629529 hL   12 OL      0.0137 ****
467 H16S   -7.501545   -2.148049   17.108690 hL   12 OL      0.0137 ****
468 C117   -7.118709   -0.113399   16.549763 cD   12 OL      0.0087 ****
469 H17R   -7.677817    0.787662   16.310175 hL   12 OL      0.0100 ****
470 H17S   -6.604890    0.097103   17.485173 hL   12 OL      0.0100 ****
471 C118   -6.074038   -0.368506   15.462119 cD   12 OL     -0.1173 ****
472 H18R   -5.372008    0.457595   15.400635 hL   12 OL      0.0266 ****
473 H18S   -6.527418   -0.483288   14.483338 hL   12 OL      0.0266 ****
474 H18T   -5.505820   -1.270670   15.670374 hL   12 OL      0.0266 ****
475 C118  -14.279169   -2.814807    1.848035 cD   13 ST     -0.1201 ****
476 H18R  -13.403169   -2.843807    1.206035 hL   13 ST      0.0279 ****
477 H18S  -14.201169   -3.638807    2.552035 hL   13 ST      0.0279 ****
478 H18T  -14.240169   -1.890807    2.418035 hL   13 ST      0.0279 ****
479 C117  -15.568169   -2.905807    1.032035 cD   13 ST      0.0207 ****
480 H17R  -15.561169   -3.822807    0.448035 hL   13 ST      0.0085 ****
481 H17S  -15.599169   -2.087807    0.315035 hL   13 ST      0.0085 ****
482 C116  -16.828169   -2.866807    1.899035 cD   13 ST     -0.0277 ****
483 H16R  -16.833169   -1.948807    2.484035 hL   13 ST      0.0156 ****
484 H16S  -16.794169   -3.684807    2.617035 hL   13 ST      0.0156 ****
485 C115  -18.123169   -2.957807    1.089035 cD   13 ST     -0.0324 ****
486 H15R  -18.118169   -3.875807    0.504035 hL   13 ST      0.0103 ****
487 H15S  -18.156169   -2.139807    0.371035 hL   13 ST      0.0103 ****
488 C114  -19.383169   -2.918807    1.957035 cD   13 ST     -0.0135 ****
489 H14R  -19.389169   -2.000807    2.542035 hL   13 ST      0.0101 ****
490 H14S  -19.350169   -3.736807    2.675035 hL   13 ST      0.0101 ****
491 C113  -20.678169   -3.009807    1.147035 cD   13 ST     -0.0116 ****
492 H13R  -20.673169   -3.927807    0.562035 hL   13 ST      0.0060 ****
493 H13S  -20.711169   -2.191807    0.429035 hL   13 ST      0.0060 ****
494 C112  -21.938169   -2.970807    2.014035 cD   13 ST     -0.0192 ****
495 H12R  -21.944169   -2.052807    2.599035 hL   13 ST      0.0082 ****
496 H12S  -21.905169   -3.788807    2.732035 hL   13 ST      0.0082 ****
497 C111  -23.233169   -3.061807    1.205035 cD   13 ST     -0.0171 ****
498 H11R  -23.228169   -3.979807    0.620035 hL   13 ST      0.0102 ****
499 H11S  -23.266169   -2.243807    0.487035 hL   13 ST      0.0102 ****
500 C110  -24.493169   -3.022807    2.072035 cD   13 ST     -0.0264 ****
501 H10R  -24.499169   -2.104807    2.657035 hL   13 ST      0.0108 ****
502 H10S  -24.460169   -3.840807    2.790035 hL   13 ST      0.0108 ****
503 C19   -25.788169   -3.113807    1.262035 cD   13 ST     -0.0180 ****
504 H9R   -25.783169   -4.031807    0.677035 hL   13 ST      0.0096 ****
505 H9S   -25.821169   -2.295807    0.544035 hL   13 ST      0.0096 ****
506 C18   -27.048169   -3.075807    2.130035 cD   13 ST     -0.0146 ****
507 H8R   -27.054169   -2.156807    2.715035 hL   13 ST      0.0073 ****
508 H8S   -27.015169   -3.892807    2.848035 hL   13 ST      0.0073 ****
509 C17   -28.343169   -3.166807    1.320035 cD   13 ST     -0.0195 ****
510 H7R   -28.337169   -4.084807    0.735035 hL   13 ST      0.0093 ****
511 H7S   -28.376169   -2.348807    0.602035 hL   13 ST      0.0093 ****
512 C16   -29.602169   -3.127807    2.187035 cD   13 ST     -0.0376 ****
513 H6R   -29.609169   -2.209807    2.772035 hL   13 ST      0.0177 ****
514 H6S   -29.569169   -3.945807    2.906035 hL   13 ST      0.0177 ****
515 C15   -30.897169   -3.220807    1.377035 cD   13 ST     -0.0134 ****
516 H5R   -30.892169   -4.138807    0.794035 hL   13 ST      0.0082 ****
517 H5S   -30.931169   -2.402807    0.659035 hL   13 ST      0.0082 ****
518 C14   -32.156169   -3.182807    2.245035 cD   13 ST     -0.0598 ****
519 H4R   -32.164169   -2.262807    2.829035 hL   13 ST      0.0242 ****
520 H4S   -32.123169   -3.998807    2.964035 hL   13 ST      0.0242 ****
521 C13   -33.447169   -3.280807    1.432035 cD   13 ST     -0.0001 ****
522 H3R   -33.453169   -4.201807    0.857035 hL   13 ST      0.0139 ****
523 H3S   -33.486169   -2.464807    0.713035 hL   13 ST      0.0139 ****
524 C12   -34.704169   -3.251807    2.315035 cD   13 ST     -0.1170 ****
525 H2R   -34.735169   -2.334807    2.893035 hL   13 ST      0.0518 ****
526 H2S   -34.675169   -4.080807    3.012035 hL   13 ST      0.0518 ****
527 C11   -35.948463   -3.326291    1.466362 cC   14 PS      0.7867 ****
528 O12   -35.922070   -3.396803    0.280803 oC   14 PS     -0.6229 ****
529 O11   -37.047406   -3.303347    2.198132 oS   14 PS     -0.4249 ****
530 C1    -38.305348   -3.389261    1.530539 cA   14 PS      0.0187 ****
531 HR    -38.400595   -4.352039    1.055102 hE   14 PS      0.1141 ****
532 HS    -38.369037   -2.614360    0.781235 hE   14 PS      0.1141 ****
533 C2    -39.376255   -3.213360    2.584271 cA   14 PS      0.1279 ****
534 HX    -39.222281   -3.912489    3.388938 hE   14 PS      0.1157 ****
535 C3    -40.778032   -3.362881    2.013887 cA   14 PS     -0.0118 ****
536 HA    -40.945944   -2.648738    1.218934 hE   14 PS      0.1011 ****
537 HB    -41.500626   -3.174840    2.800810 hE   14 PS      0.1011 ****
538 O31   -40.896983   -4.672486    1.538306 oT   14 PS     -0.4057 ****
539 P31   -42.205481   -5.099231    0.681833 pA   14 PS      1.0745 ****
540 O32   -43.243571   -5.241838    1.933969 oT   14 PS     -0.4057 ****
541 C31   -44.522307   -5.792513    1.721486 cA   14 PS      0.0784 ****
542 H1A   -44.796736   -5.754992    0.672827 hE   14 PS      0.0710 ****
543 H1B   -45.243524   -5.212421    2.274844 hE   14 PS      0.0710 ****
544 C32   -44.586961   -7.219841    2.244219 cA   14 PS     -0.0688 ****
545 H2A   -44.277939   -7.222082    3.278925 hX   14 PS      0.1038 ****
546 N31   -43.649590   -8.100937    1.474838 nA   14 PS     -0.3610 ****
547 HN1A  -44.281583   -8.667413    0.906373 hN   14 PS      0.3389 ****
548 HN1B  -42.955945   -7.570008    0.908074 hN   14 PS      0.3389 ****
549 HN1C  -43.150295   -8.726084    2.080522 hN   14 PS      0.3389 ****
550 C33   -46.018999   -7.835100    2.116046 cC   14 PS      0.8140 ****
551 O33   -41.960744   -6.477996    0.177652 oP   14 PS     -0.7997 ****
552 O34   -42.613259   -4.005095   -0.203821 oP   14 PS     -0.7997 ****
553 O21   -39.276048   -1.879492    3.090068 oS   14 PS     -0.4052 ****
554 C21   -38.972351   -1.660784    4.360491 cC   14 PS      0.7988 ****
555 O22   -38.792464   -2.505703    5.175548 oC   14 PS     -0.6285 ****
556 O35   -46.080954   -8.812258    1.358106 oO   14 PS     -0.7868 ****
557 O36   -46.869720   -7.261907    2.771802 oO   14 PS     -0.7868 ****
558 C118  -44.553976   -3.139466   24.079327 cD   15 ST     -0.1201 ****
559 H18R  -44.282117   -2.982554   25.119449 hL   15 ST      0.0279 ****
560 H18S  -44.678069   -4.208161   23.927116 hL   15 ST      0.0279 ****
561 H18T  -45.519985   -2.669967   23.916248 hL   15 ST      0.0279 ****
562 C117  -43.495920   -2.566651   23.136959 cD   15 ST      0.0207 ****
563 H17R  -42.535812   -3.031032   23.347997 hL   15 ST      0.0085 ****
564 H17S  -43.371672   -1.504404   23.337877 hL   15 ST      0.0085 ****
565 C116  -43.841085   -2.765275   21.659726 cD   15 ST     -0.0277 ****
566 H16R  -44.803096   -2.300926   21.450229 hL   15 ST      0.0156 ****
567 H16S  -43.966972   -3.828565   21.461302 hL   15 ST      0.0156 ****
568 C115  -42.786043   -2.194535   20.709701 cD   15 ST     -0.0324 ****
569 H15R  -41.824032   -2.658884   20.919198 hL   15 ST      0.0103 ****
570 H15S  -42.660440   -1.131419   20.909067 hL   15 ST      0.0103 ****
571 C114  -43.131994   -2.393679   19.232134 cD   15 ST     -0.0135 ****
572 H14R  -44.093721   -1.929155   19.021695 hL   15 ST      0.0101 ****
573 H14S  -43.257597   -3.456794   19.032768 hL   15 ST      0.0101 ****
574 C113  -42.076952   -1.822938   18.282110 cD   15 ST     -0.0116 ****
575 H13R  -41.114941   -2.287287   18.491606 hL   15 ST      0.0060 ****
576 H13S  -41.951349   -0.759823   18.481476 hL   15 ST      0.0060 ****
577 C112  -42.422117   -2.021562   16.804876 cD   15 ST     -0.0192 ****
578 H12R  -43.383844   -1.557039   16.594437 hL   15 ST      0.0082 ****
579 H12S  -42.547720   -3.084677   16.605510 hL   15 ST      0.0082 ****
580 C111  -41.367861   -1.451341   15.854519 cD   15 ST     -0.0171 ****
581 H11R  -40.405850   -1.915691   16.064015 hL   15 ST      0.0102 ****
582 H11S  -41.242258   -0.388226   16.053885 hL   15 ST      0.0102 ****
583 C110  -41.713026   -1.649965   14.377285 cD   15 ST     -0.0264 ****
584 H10R  -42.674753   -1.185442   14.166846 hL   15 ST      0.0108 ****
585 H10S  -41.838629   -2.713081   14.177919 hL   15 ST      0.0108 ****
586 C19   -40.657984   -1.079225   13.427261 cD   15 ST     -0.0180 ****
587 H9R   -39.695973   -1.543574   13.636757 hL   15 ST      0.0096 ****
588 H9S   -40.532381   -0.016110   13.626627 hL   15 ST      0.0096 ****
589 C18   -41.003387   -1.279205   11.949705 cD   15 ST     -0.0146 ****
590 H8R   -41.965662   -0.813846   11.739255 hL   15 ST      0.0073 ****
591 H8S   -41.129538   -2.341484   11.750328 hL   15 ST      0.0073 ****
592 C17   -39.948344   -0.708465   10.999680 cD   15 ST     -0.0195 ****
593 H7R   -38.986618   -1.172988   11.210119 hL   15 ST      0.0093 ****
594 H7S   -39.822742    0.354651   11.199046 hL   15 ST      0.0093 ****
595 C16   -40.293794   -0.907263    9.523389 cD   15 ST     -0.0376 ****
596 H6R   -41.255236   -0.442565    9.312007 hL   15 ST      0.0177 ****
597 H6S   -40.420183   -1.970898    9.323690 hL   15 ST      0.0177 ****
598 C15   -39.237655   -0.338195    8.573387 cD   15 ST     -0.0134 ****
599 H5R   -38.277217   -0.803584    8.782216 hL   15 ST      0.0082 ****
600 H5S   -39.111768    0.725095    8.771810 hL   15 ST      0.0082 ****
601 C14   -39.583342   -0.538349    7.096773 cD   15 ST     -0.0598 ****
602 H4R   -40.544811   -0.071285    6.884760 hL   15 ST      0.0242 ****
603 H4S   -39.710828   -1.600312    6.897053 hL   15 ST      0.0242 ****
604 C13   -38.523239    0.027401    6.151595 cD   15 ST     -0.0001 ****
605 H3R   -37.564322   -0.442740    6.347420 hL   15 ST      0.0139 ****
606 H3S   -38.394048    1.090409    6.345659 hL   15 ST      0.0139 ****
607 C12   -38.876358   -0.188428    4.671965 cD   15 ST     -0.1170 ****
608 H2R   -39.826682    0.291278    4.465321 hL   15 ST      0.0518 ****
609 H2S   -38.106459    0.264763    4.058969 hL   15 ST      0.0518 ****
610 C116  -30.167169   -1.723807    1.102035 cD   16 AR      0.0391 ****
611 H16R  -30.998169   -1.461807    1.756035 hL   16 AR      0.0288 ****
612 H16S  -29.545169   -2.412807    1.662035 hL   16 AR      0.0288 ****
613 C115  -30.731169   -2.375807   -0.133965 cB   16 AR     -0.2441 ****
614 H15R  -31.418169   -1.755807   -0.689965 hB   16 AR      0.1328 ****
615 C114  -30.496169   -3.586807   -0.608965 cB   16 AR     -0.2248 ****
616 H14R  -31.018169   -3.874807   -1.508965 hB   16 AR      0.1296 ****
617 C113  -29.594169   -4.656807   -0.039965 cD   16 AR      0.0582 ****
618 H13R  -28.895169   -4.238807    0.672035 hL   16 AR      0.0614 ****
619 H13S  -28.999169   -5.066807   -0.855965 hL   16 AR      0.0614 ****
620 C112  -30.391169   -5.774807    0.598035 cB   16 AR     -0.2202 ****
621 H12R  -31.337169   -5.991807    0.128035 hB   16 AR      0.1320 ****
622 C111  -30.051169   -6.490807    1.655035 cB   16 AR     -0.2287 ****
623 H11R  -30.747169   -7.238807    1.999035 hB   16 AR      0.1313 ****
624 C110  -28.771169   -6.373807    2.456035 cD   16 AR      0.0954 ****
625 H10R  -27.951169   -6.085807    1.812035 hL   16 AR      0.0511 ****
626 H10S  -28.522169   -7.361807    2.840035 hL   16 AR      0.0511 ****
627 C19   -28.897169   -5.412807    3.620035 cB   16 AR     -0.2287 ****
628 H9R   -29.867169   -5.394807    4.091035 hB   16 AR      0.1322 ****
629 C18   -27.965169   -4.616807    4.114035 cB   16 AR     -0.2285 ****
630 H8R   -28.236169   -3.993807    4.953035 hB   16 AR      0.1347 ****
631 C17   -26.528169   -4.476807    3.666035 cD   16 AR      0.0558 ****
632 H7R   -26.309169   -5.148807    2.849035 hL   16 AR      0.0628 ****
633 H7S   -25.888169   -4.783807    4.493035 hL   16 AR      0.0628 ****
634 C16   -26.183169   -3.049807    3.311035 cB   16 AR     -0.2068 ****
635 H6R   -26.398169   -2.334807    4.090035 hB   16 AR      0.1299 ****
636 C15   -25.659169   -2.582807    2.190035 cB   16 AR     -0.2679 ****
637 H5R   -25.480169   -1.519807    2.137035 hB   16 AR      0.1436 ****
638 C14   -25.262169   -3.336807    0.946035 cD   16 AR      0.0314 ****
639 H4R   -25.842169   -2.949807    0.110035 hL   16 AR      0.0387 ****
640 H4S   -25.506169   -4.389807    1.026035 hL   16 AR      0.0387 ****
641 C13   -23.773169   -3.182807    0.601035 cD   16 AR      0.0256 ****
642 H3R   -23.524169   -2.129807    0.518035 hL   16 AR      0.0251 ****
643 H3S   -23.594169   -3.626807   -0.374965 hL   16 AR      0.0251 ****
644 C12   -22.850169   -3.846807    1.633035 cD   16 AR     -0.1239 ****
645 H2R   -23.074169   -4.901807    1.720035 hL   16 AR      0.0245 ****
646 H2S   -22.991169   -3.383807    2.603035 hL   16 AR      0.0245 ****
647 C117  -29.372169   -0.451807    0.781035 cD   16 AR     -0.0284 ****
648 H17R  -28.519169   -0.713807    0.159035 hL   16 AR      0.0196 ****
649 H17S  -29.989169    0.218193    0.184035 hL   16 AR      0.0196 ****
650 C118  -28.890169    0.283193    2.032035 cD   16 AR     -0.0198 ****
651 H18R  -29.750169    0.550193    2.646035 hL   16 AR      0.0142 ****
652 H18S  -28.284169   -0.391807    2.633035 hL   16 AR      0.0142 ****
653 C119  -28.084169    1.545193    1.720035 cD   16 AR      0.0250 ****
654 H19R  -27.224169    1.280193    1.108035 hL   16 AR      0.0054 ****
655 H19S  -28.689169    2.220193    1.117035 hL   16 AR      0.0054 ****
656 C120  -27.606169    2.276193    2.974035 cD   16 AR     -0.1093 ****
657 H20R  -27.037169    3.165193    2.720035 hL   16 AR      0.0237 ****
658 H20S  -26.970169    1.638193    3.581035 hL   16 AR      0.0237 ****
659 H20T  -28.446169    2.586193    3.591035 hL   16 AR      0.0237 ****
660 C11   -21.406373   -3.699588    1.223345 cC   17 PS      0.7867 ****
661 O12   -21.067008   -3.140394    0.231705 oC   17 PS     -0.6229 ****
662 O11   -20.586608   -4.261649    2.092691 oS   17 PS     -0.4249 ****
663 C1    -19.183488   -4.182307    1.846846 cA   17 PS      0.0187 ****
664 HR    -18.861355   -3.155058    1.902028 hE   17 PS      0.1141 ****
665 HS    -18.967812   -4.570637    0.862637 hE   17 PS      0.1141 ****
666 C2    -18.501548   -5.006852    2.916059 cA   17 PS      0.1279 ****
667 HX    -18.826556   -4.688825    3.892382 hE   17 PS      0.1157 ****
668 C3    -16.985464   -4.942794    2.815780 cA   17 PS     -0.0118 ****
669 HA    -16.651538   -5.281142    1.844101 hE   17 PS      0.1011 ****
670 HB    -16.554600   -5.591904    3.570605 hE   17 PS      0.1011 ****
671 O31   -16.609018   -3.614083    3.035342 oT   17 PS     -0.4057 ****
672 P31   -15.069672   -3.166221    2.795223 pA   17 PS      1.0745 ****
673 O32   -14.449595   -3.784313    4.173367 oT   17 PS     -0.4057 ****
674 C31   -13.121574   -3.487234    4.536219 cA   17 PS      0.0784 ****
675 H1A   -12.547983   -3.145564    3.681432 hE   17 PS      0.0710 ****
676 H1B   -12.657415   -4.385810    4.910364 hE   17 PS      0.0710 ****
677 C32   -13.087284   -2.456251    5.654517 cA   17 PS     -0.0688 ****
678 H2A   -13.692719   -2.815813    6.473223 hX   17 PS      0.1038 ****
679 N31   -13.663755   -1.155198    5.183472 nA   17 PS     -0.3610 ****
680 HN1A  -12.840513   -0.556244    5.099873 hN   17 PS      0.3389 ****
681 HN1B  -14.199489   -1.239056    4.294535 hN   17 PS      0.3389 ****
682 HN1C  -14.263144   -0.745144    5.875964 hN   17 PS      0.3389 ****
683 C33   -11.633329   -2.170305    6.154474 cC   17 PS      0.8140 ****
684 O33   -15.023366   -1.685560    2.938699 oP   17 PS     -0.7997 ****
685 O34   -14.515561   -3.854946    1.626284 oP   17 PS     -0.7997 ****
686 O21   -18.871553   -6.373597    2.715603 oS   17 PS     -0.4052 ****
687 C21   -19.563346   -7.027255    3.636575 cC   17 PS      0.7988 ****
688 O22   -19.902724   -6.579045    4.682757 oC   17 PS     -0.6285 ****
689 O35   -11.256175   -1.006086    5.966068 oO   17 PS     -0.7868 ****
690 O36   -11.076567   -3.133324    6.649350 oO   17 PS     -0.7868 ****
691 C116  -19.524190   -9.486751   10.762918 cD   18 AR      0.0391 ****
692 H16R  -19.097310   -9.005017   11.641909 hL   18 AR      0.0288 ****
693 H16S  -18.875695   -9.232922    9.932116 hL   18 AR      0.0288 ****
694 C115  -19.544921  -10.973638   11.007117 cB   18 AR     -0.2441 ****
695 H15R  -20.118073  -11.274662   11.871054 hB   18 AR      0.1328 ****
696 C114  -18.958742  -11.932783   10.311556 cB   18 AR     -0.2248 ****
697 H14R  -19.082045  -12.945529   10.664501 hB   18 AR      0.1296 ****
698 C113  -18.100935  -11.801906    9.074906 cD   18 AR      0.0582 ****
699 H13R  -18.238180  -10.836693    8.606081 hL   18 AR      0.0614 ****
700 H13S  -18.432093  -12.548270    8.352925 hL   18 AR      0.0614 ****
701 C112  -16.637446  -12.033430    9.385991 cB   18 AR     -0.2202 ****
702 H12R  -16.440756  -12.752951   10.164777 hB   18 AR      0.1320 ****
703 C111  -15.600543  -11.448289    8.813324 cB   18 AR     -0.2287 ****
704 H11R  -14.617247  -11.709478    9.169925 hB   18 AR      0.1313 ****
705 C110  -15.638590  -10.428938    7.693875 cD   18 AR      0.0954 ****
706 H10R  -16.477367  -10.622816    7.038937 hL   18 AR      0.0511 ****
707 H10S  -14.743936  -10.560605    7.087361 hL   18 AR      0.0511 ****
708 C19   -15.679602   -9.003365    8.204124 cB   18 AR     -0.2287 ****
709 H9R   -15.125609   -8.830322    9.113086 hB   18 AR      0.1322 ****
710 C18   -16.301569   -7.970240    7.663675 cB   18 AR     -0.2285 ****
711 H8R   -16.221581   -7.020315    8.170365 hB   18 AR      0.1347 ****
712 C17   -17.109254   -7.934708    6.386313 cD   18 AR      0.0558 ****
713 H7R   -17.123130   -8.903673    5.908875 hL   18 AR      0.0628 ****
714 H7S   -16.608459   -7.260098    5.692133 hL   18 AR      0.0628 ****
715 C16   -18.508919   -7.415844    6.616741 cB   18 AR     -0.2068 ****
716 H6R   -18.550592   -6.455291    7.106528 hB   18 AR      0.1299 ****
717 C15   -19.660844   -7.980841    6.295564 cB   18 AR     -0.2679 ****
718 H5R   -20.560124   -7.437727    6.542829 hB   18 AR      0.1436 ****
719 C14   -19.907850   -9.303358    5.614685 cD   18 AR      0.0314 ****
720 H4R   -20.493663   -9.930422    6.284520 hL   18 AR      0.0387 ****
721 H4S   -18.980745   -9.834135    5.431666 hL   18 AR      0.0387 ****
722 C13   -20.684498   -9.163447    4.296692 cD   18 AR      0.0256 ****
723 H3R   -21.614852   -8.633988    4.475051 hL   18 AR      0.0251 ****
724 H3S   -20.949900  -10.156133    3.941881 hL   18 AR      0.0251 ****
725 C12   -19.883368   -8.436818    3.206714 cD   18 AR     -0.1239 ****
726 H2R   -18.965169   -8.980373    3.027194 hL   18 AR      0.0245 ****
727 H2S   -20.470695   -8.416245    2.295795 hL   18 AR      0.0245 ****
728 C117  -20.926487   -8.914741   10.519163 cD   18 AR     -0.0284 ****
729 H17R  -21.342220   -9.364919    9.620473 hL   18 AR      0.0196 ****
730 H17S  -21.582827   -9.207729   11.337316 hL   18 AR      0.0196 ****
731 C118  -20.935254   -7.391934   10.383026 cD   18 AR     -0.0198 ****
732 H18R  -20.525668   -6.947427   11.289965 hL   18 AR      0.0142 ****
733 H18S  -20.269404   -7.100761    9.573134 hL   18 AR      0.0142 ****
734 C119  -22.328264   -6.815060   10.125412 cD   18 AR      0.0250 ****
735 H19R  -22.738255   -7.256888    9.219286 hL   18 AR      0.0054 ****
736 H19S  -22.995552   -7.107653   10.934346 hL   18 AR      0.0054 ****
737 C120  -22.331033   -5.292756    9.991459 cD   18 AR     -0.1093 ****
738 H20R  -23.331962   -4.914374    9.808250 hL   18 AR      0.0237 ****
739 H20S  -21.699485   -4.970674    9.168416 hL   18 AR      0.0237 ****
740 H20T  -21.958909   -4.819064   10.896737 hL   18 AR      0.0237 ****
741 C116  -20.439169   -2.171807    1.006035 cB   19 DHA    -0.2339 ****
742 H16R  -20.853169   -1.175807    0.990035 hB   19 DHA     0.1338 ****
743 C115  -21.473169   -3.268807    0.903035 cD   19 DHA     0.0692 ****
744 H15R  -20.998169   -4.243807    0.875035 hL   19 DHA     0.0583 ****
745 H15S  -22.007169   -3.160807   -0.034965 hL   19 DHA     0.0583 ****
746 C114  -22.431169   -3.228807    2.071035 cB   19 DHA    -0.2404 ****
747 H14R  -21.964169   -3.405807    3.028035 hB   19 DHA     0.1383 ****
748 C113  -23.732169   -2.996807    2.064035 cB   19 DHA    -0.2187 ****
749 H13R  -24.245169   -3.014807    3.013035 hB   19 DHA     0.1316 ****
750 C112  -24.632169   -2.716807    0.882035 cD   19 DHA     0.0852 ****
751 H12R  -24.053169   -2.636807   -0.030965 hL   19 DHA     0.0534 ****
752 H12S  -25.110169   -1.754807    1.028035 hL   19 DHA     0.0534 ****
753 C111  -25.664169   -3.806807    0.711035 cB   19 DHA    -0.2412 ****
754 H11R  -25.245169   -4.781807    0.515035 hB   19 DHA     0.1363 ****
755 C110  -26.982169   -3.715807    0.781035 cB   19 DHA    -0.2214 ****
756 H10R  -27.550169   -4.620807    0.637035 hB   19 DHA     0.1336 ****
757 C19   -27.829169   -2.493807    1.052035 cD   19 DHA     0.0890 ****
758 H9R   -28.485169   -2.327807    0.205035 hL   19 DHA     0.0543 ****
759 H9S   -27.209169   -1.607807    1.139035 hL   19 DHA     0.0543 ****
760 C18   -28.626169   -2.653807    2.325035 cB   19 DHA    -0.2263 ****
761 H8R   -28.022169   -2.750807    3.214035 hB   19 DHA     0.1281 ****
762 C17   -29.939169   -2.702807    2.476035 cB   19 DHA    -0.2209 ****
763 H7R   -30.320169   -2.820807    3.478035 hB   19 DHA     0.1399 ****
764 C16   -31.012169   -2.599807    1.416035 cD   19 DHA     0.0603 ****
765 H6R   -31.622169   -3.495807    1.447035 hL   19 DHA     0.0635 ****
766 H6S   -30.573169   -2.562807    0.426035 hL   19 DHA     0.0635 ****
767 C15   -31.861169   -1.366807    1.617035 cB   19 DHA    -0.2148 ****
768 H5R   -31.320169   -0.438807    1.517035 hB   19 DHA     0.1325 ****
769 C14   -33.149169   -1.291807    1.906035 cB   19 DHA    -0.2871 ****
770 H4R   -33.576169   -0.305807    2.010035 hB   19 DHA     0.1540 ****
771 C13   -34.130169   -2.416807    2.108035 cD   19 DHA     0.1210 ****
772 H3R   -34.608169   -2.300807    3.076035 hL   19 DHA     0.0261 ****
773 H3S   -33.632169   -3.378807    2.114035 hL   19 DHA     0.0261 ****
774 C12   -35.217169   -2.415807    1.016035 cD   19 DHA    -0.1429 ****
775 H2R   -34.773169   -2.566807    0.042035 hL   19 DHA     0.0375 ****
776 H2S   -35.735169   -1.461807    1.017035 hL   19 DHA     0.0375 ****
777 C117  -19.126169   -2.283807    1.120035 cB   19 DHA    -0.2165 ****
778 H17R  -18.556169   -1.370807    1.190035 hB   19 DHA     0.1321 ****
779 C118  -18.287169   -3.538807    1.181035 cD   19 DHA     0.0927 ****
780 H18R  -18.906169   -4.421807    1.061035 hL   19 DHA     0.0532 ****
781 H18S  -17.593169   -3.535807    0.348035 hL   19 DHA     0.0532 ****
782 C119  -17.546169   -3.637807    2.494035 cB   19 DHA    -0.2468 ****
783 H19R  -18.190169   -3.687807    3.359035 hB   19 DHA     0.1363 ****
784 C120  -16.241169   -3.659807    2.703035 cB   19 DHA    -0.2402 ****
785 H20R  -15.910169   -3.729807    3.729035 hB   19 DHA     0.1330 ****
786 C121  -15.121169   -3.589807    1.697035 cD   19 DHA     0.1220 ****
787 H21R  -14.523169   -4.495807    1.778035 hL   19 DHA     0.0100 ****
788 H21S  -15.504169   -3.565807    0.684035 hL   19 DHA     0.0100 ****
789 C122  -14.214169   -2.375807    1.929035 cD   19 DHA    -0.1089 ****
790 H22R  -13.390169   -2.365807    1.222035 hL   19 DHA     0.0260 ****
791 H22S  -13.791169   -2.387807    2.929035 hL   19 DHA     0.0260 ****
792 H22T  -14.768169   -1.449807    1.815035 hL   19 DHA     0.0260 ****
793 C11   -36.214997   -3.519376    1.262082 cC   20 PGR     0.7759 ****
794 O12   -36.141292   -4.268157    2.182441 oC   20 PGR    -0.6151 ****
795 O11   -37.159202   -3.544233    0.342617 oS   20 PGR    -0.4047 ****
796 C1    -38.199225   -4.517080    0.457814 cA   20 PGR     0.0129 ****
797 HR    -38.809472   -4.297995    1.319621 hE   20 PGR     0.1030 ****
798 HS    -37.761176   -5.498308    0.570021 hE   20 PGR     0.1030 ****
799 C2    -39.026429   -4.434531   -0.804489 cA   20 PGR     0.1656 ****
800 HX    -39.344487   -3.419192   -0.972219 hE   20 PGR     0.1164 ****
801 C3    -40.224168   -5.371050   -0.768703 cA   20 PGR     0.0066 ****
802 HA    -39.899280   -6.397101   -0.650213 hE   20 PGR     0.0919 ****
803 HB    -40.753421   -5.296513   -1.713876 hE   20 PGR     0.0919 ****
804 O31   -41.029190   -4.973918    0.294253 oT   20 PGR    -0.4428 ****
805 P31   -42.391224   -5.843104    0.628061 pA   20 PGR     1.1500 ****
806 O32   -43.345925   -5.323804   -0.594113 oT   20 PGR    -0.4511 ****
807 C31   -43.904891   -4.039887   -0.568569 cA   20 PGR     0.0695 ****
808 H1A   -43.688550   -3.549204   -1.511953 hE   20 PGR     0.0592 ****
809 H1B   -43.491690   -3.436310    0.228387 hE   20 PGR     0.0592 ****
810 C32   -45.415035   -4.125688   -0.415463 cA   20 PGR     0.2196 ****
811 H2A   -45.806421   -4.782971   -1.190379 hE   20 PGR     0.0296 ****
812 O35   -45.923169   -2.822424   -0.593270 oH   20 PGR    -0.6540 ****
813 HO5A  -46.821930   -2.833179   -0.288878 hO   20 PGR     0.4139 ****
814 C33   -45.846038   -4.669794    0.932411 cA   20 PGR     0.0972 ****
815 H3A   -45.516087   -5.691741    1.054711 hE   20 PGR     0.0581 ****
816 H3B   -45.412762   -4.076441    1.728141 hE   20 PGR     0.0581 ****
817 O33   -42.910970   -5.306753    1.894202 oP   20 PGR    -0.8160 ****
818 O34   -42.108987   -7.258961    0.363598 oP   20 PGR    -0.8160 ****
819 O21   -38.194894   -4.853897   -1.894735 oS   20 PGR    -0.3934 ****
820 C21   -37.887525   -4.021063   -2.872305 cC   20 PGR     0.7464 ****
821 O22   -38.264698   -2.897229   -2.964972 oC   20 PGR    -0.6079 ****
822 O36   -47.265831   -4.584536    0.964635 oH   20 PGR    -0.6339 ****
823 HO6A  -47.566845   -4.857044    1.818838 hO   20 PGR     0.4070 ****
824 C116  -40.475183   -3.513365  -18.208014 cB   21 DHA    -0.2339 ****
825 H16R  -41.206676   -3.029162  -17.580215 hB   21 DHA     0.1338 ****
826 C115  -39.401662   -4.252183  -17.443242 cD   21 DHA     0.0692 ****
827 H15R  -38.724243   -4.758275  -18.122954 hL   21 DHA     0.0583 ****
828 H15S  -39.867984   -5.025746  -16.842569 hL   21 DHA     0.0583 ****
829 C114  -38.602465   -3.309405  -16.573736 cB   21 DHA    -0.2404 ****
830 H14R  -38.054688   -2.560894  -17.125948 hB   21 DHA     0.1383 ****
831 C113  -38.506395   -3.283033  -15.255954 cB   21 DHA    -0.2187 ****
832 H13R  -37.874799   -2.525293  -14.818907 hB   21 DHA     0.1316 ****
833 C112  -39.161242   -4.197521  -14.245800 cD   21 DHA     0.0852 ****
834 H12R  -39.839210   -4.887448  -14.735260 hL   21 DHA     0.0534 ****
835 H12S  -39.764853   -3.598678  -13.573279 hL   21 DHA     0.0534 ****
836 C111  -38.129913   -4.990029  -13.477259 cB   21 DHA    -0.2412 ****
837 H11R  -37.529008   -5.642142  -14.092291 hB   21 DHA     0.1363 ****
838 C110  -37.873870   -4.974226  -12.179377 cB   21 DHA    -0.2214 ****
839 H10R  -37.082964   -5.613881  -11.822032 hB   21 DHA     0.1336 ****
840 C19   -38.541919   -4.157817  -11.097102 cD   21 DHA     0.0890 ****
841 H9R   -38.980351   -4.832205  -10.370273 hL   21 DHA     0.0543 ****
842 H9S   -39.359042   -3.572819  -11.505822 hL   21 DHA     0.0543 ****
843 C18   -37.559260   -3.220748  -10.435574 cB   21 DHA    -0.2263 ****
844 H8R   -37.143480   -2.477965  -11.098859 hB   21 DHA     0.1281 ****
845 C17   -37.146842   -3.210074   -9.179004 cB   21 DHA    -0.2209 ****
846 H7R   -36.434717   -2.451189   -8.896056 hB   21 DHA     0.1399 ****
847 C16   -37.553684   -4.126923   -8.047896 cD   21 DHA     0.0603 ****
848 H6R   -36.668103   -4.616682   -7.658332 hL   21 DHA     0.0635 ****
849 H6S   -38.206072   -4.914445   -8.406211 hL   21 DHA     0.0635 ****
850 C15   -38.267368   -3.364059   -6.956939 cB   21 DHA    -0.2148 ****
851 H5R   -39.200324   -2.920552   -7.268002 hB   21 DHA     0.1325 ****
852 C14   -37.888914   -3.169351   -5.705160 cB   21 DHA    -0.2871 ****
853 H4R   -38.545769   -2.589814   -5.074273 hB   21 DHA     0.1540 ****
854 C13   -36.642730   -3.661252   -5.016792 cD   21 DHA     0.1210 ****
855 H3R   -36.118538   -2.814175   -4.584766 hL   21 DHA     0.0261 ****
856 H3S   -35.963064   -4.130111   -5.718012 hL   21 DHA     0.0261 ****
857 C12   -36.979921   -4.660064   -3.893087 cD   21 DHA    -0.1429 ****
858 H2R   -37.468971   -5.521111   -4.326722 hL   21 DHA     0.0375 ****
859 H2S   -36.057241   -4.974966   -3.415655 hL   21 DHA     0.0375 ****
860 C117  -40.615467   -3.384947  -19.516960 cB   21 DHA    -0.2165 ****
861 H17R  -41.452561   -2.803531  -19.869945 hB   21 DHA     0.1321 ****
862 C118  -39.742780   -3.938476  -20.619090 cD   21 DHA     0.0927 ****
863 H18R  -38.945814   -4.549738  -20.208658 hL   21 DHA     0.0532 ****
864 H18S  -40.340958   -4.593437  -21.242582 hL   21 DHA     0.0532 ****
865 C119  -39.131290   -2.828522  -21.441850 cB   21 DHA    -0.2468 ****
866 H19R  -38.488828   -2.167860  -20.879508 hB   21 DHA     0.1363 ****
867 C120  -39.293138   -2.572714  -22.728534 cB   21 DHA    -0.2402 ****
868 H20R  -38.766111   -1.718710  -23.128606 hB   21 DHA     0.1330 ****
869 C121  -40.132631   -3.309040  -23.740666 cD   21 DHA     0.1220 ****
870 H21R  -39.481338   -3.677900  -24.531085 hL   21 DHA     0.0100 ****
871 H21S  -40.603545   -4.179972  -23.301177 hL   21 DHA     0.0100 ****
872 C122  -41.205310   -2.408057  -24.363449 cD   21 DHA    -0.1089 ****
873 H22R  -41.771424   -2.943692  -25.119449 hL   21 DHA     0.0260 ****
874 H22S  -40.760009   -1.539003  -24.838343 hL   21 DHA     0.0260 ****
875 H22T  -41.900247   -2.053488  -23.609306 hL   21 DHA     0.0260 ****
876 H12T   45.830831    7.857193   20.955035 hL   22 LAL     0.0258 ****
877 C112   45.245831    7.244193   20.424035 cD   22 LAL    -0.1185 ****
878 H12R   44.552831    6.883193   21.187035 hL   22 LAL     0.0258 ****
879 H12S   45.952831    6.437193   20.213035 hL   22 LAL     0.0258 ****
880 C111   44.437831    7.579193   19.151035 cD   22 LAL     0.0233 ****
881 H11R   45.110831    7.911193   18.357035 hL   22 LAL     0.0083 ****
882 H11S   43.755831    8.402193   19.374035 hL   22 LAL     0.0083 ****
883 C110   43.622831    6.359193   18.671035 cD   22 LAL    -0.0196 ****
884 H10R   43.031831    5.973193   19.505035 hL   22 LAL     0.0152 ****
885 H10S   44.304831    5.565193   18.357035 hL   22 LAL     0.0152 ****
886 C19    42.669831    6.722193   17.509035 cD   22 LAL    -0.0220 ****
887 H9R    43.241831    7.095193   16.656035 hL   22 LAL     0.0059 ****
888 H9S    41.994831    7.515193   17.834035 hL   22 LAL     0.0059 ****
889 C18    41.832831    5.498193   17.088035 cD   22 LAL    -0.0209 ****
890 H8R    41.334831    5.091193   17.971035 hL   22 LAL     0.0104 ****
891 H8S    42.497831    4.726193   16.700035 hL   22 LAL     0.0104 ****
892 C17    40.770831    5.846193   16.022035 cD   22 LAL    -0.0193 ****
893 H7R    41.261831    6.168193   15.101035 hL   22 LAL     0.0112 ****
894 H7S    40.162831    6.682193   16.374035 hL   22 LAL     0.0112 ****
895 C16    39.868831    4.621193   15.738035 cD   22 LAL    -0.0196 ****
896 H6R    39.634831    4.121193   16.680035 hL   22 LAL     0.0102 ****
897 H6S    40.416831    3.900193   15.127035 hL   22 LAL     0.0102 ****
898 C15    38.526831    4.976193   15.056035 cD   22 LAL    -0.0157 ****
899 H5R    37.926831    5.569193   15.746035 hL   22 LAL     0.0096 ****
900 H5S    37.976831    4.051193   14.873035 hL   22 LAL     0.0096 ****
901 C14    38.688831    5.753193   13.729035 cD   22 LAL    -0.0241 ****
902 H4R    39.468831    5.289193   13.124035 hL   22 LAL     0.0206 ****
903 H4S    39.012831    6.772193   13.944035 hL   22 LAL     0.0206 ****
904 C13    37.386831    5.796193   12.894035 cD   22 LAL     0.0015 ****
905 H3R    37.129831    4.783193   12.577035 hL   22 LAL     0.0191 ****
906 H3S    37.581831    6.380193   11.993035 hL   22 LAL     0.0191 ****
907 C12    36.189831    6.417193   13.645035 cD   22 LAL    -0.1722 ****
908 H2R    36.475831    7.367193   14.097035 hL   22 LAL     0.0544 ****
909 H2S    35.863831    5.747193   14.439035 hL   22 LAL     0.0544 ****
910 C11    35.036148    6.648522   12.701867 cC   23 PH-     0.8045 ****
911 O12    35.078642    6.377597   11.545361 oC   23 PH-    -0.6287 ****
912 O11    33.997172    7.178986   13.314903 oS   23 PH-    -0.4436 ****
913 C1     32.810571    7.429801   12.558358 cA   23 PH-     0.0451 ****
914 HR     32.360806    6.494425   12.265728 hE   23 PH-     0.1020 ****
915 HS     33.063306    7.996783   11.674979 hE   23 PH-     0.1020 ****
916 C2     31.869648    8.205827   13.450725 cA   23 PH-     0.1719 ****
917 HX     31.737105    7.688791   14.386805 hE   23 PH-     0.1090 ****
918 C3     30.524393    8.457791   12.785743 cA   23 PH-     0.0275 ****
919 HA     30.655558    9.022839   11.870568 hE   23 PH-     0.0788 ****
920 HB     29.911228    9.051344   13.458191 hE   23 PH-     0.0788 ****
921 O31    29.950362    7.218639   12.535466 oT   23 PH-    -0.4700 ****
922 P31    28.463714    7.166723   11.809003 pA   23 PH-     1.2216 ****
923 O32    27.525783    7.596974   13.078752 oH   23 PH-    -0.6429 ****
924 HO2A   27.262989    6.799438   13.517134 hO   23 PH-     0.3883 ****
925 O33    28.205958    5.747110   11.529933 oP   23 PH-    -0.8389 ****
926 O34    28.420226    8.256115   10.825176 oP   23 PH-    -0.8389 ****
927 O21    32.468096    9.485573   13.701036 oS   23 PH-    -0.4460 ****
928 C21    32.802708    9.851726   14.924078 cC   23 PH-     0.8115 ****
929 O22    32.635371    9.204419   15.908209 oC   23 PH-    -0.6322 ****
930 H12T   38.676158    1.366245   19.845275 hL   24 LAL     0.0258 ****
931 C112   38.730114    2.339028   19.620025 cD   24 LAL    -0.1185 ****
932 H12R   39.267204    2.316850   18.669351 hL   24 LAL     0.0258 ****
933 H12S   39.432460    2.676261   20.387229 hL   24 LAL     0.0258 ****
934 C111   37.564545    3.345094   19.497966 cD   24 LAL     0.0233 ****
935 H11R   37.028664    3.414168   20.447519 hL   24 LAL     0.0083 ****
936 H11S   36.862161    2.979740   18.746065 hL   24 LAL     0.0083 ****
937 C110   38.074700    4.741270   19.081484 cD   24 LAL    -0.0196 ****
938 H10R   38.695841    4.643318   18.187939 hL   24 LAL     0.0152 ****
939 H10S   38.703930    5.151729   19.875051 hL   24 LAL     0.0152 ****
940 C19    36.912105    5.714063   18.777727 cD   24 LAL    -0.0220 ****
941 H9R    36.286235    5.840675   19.664395 hL   24 LAL     0.0059 ****
942 H9S    36.291438    5.293769   17.985121 hL   24 LAL     0.0059 ****
943 C18    37.452460    7.081187   18.314076 cD   24 LAL    -0.0209 ****
944 H8R    38.140157    6.923875   17.480008 hL   24 LAL     0.0104 ****
945 H8S    38.019286    7.536273   19.126700 hL   24 LAL     0.0104 ****
946 C17    36.327786    8.041944   17.869824 cD   24 LAL    -0.0193 ****
947 H7R    35.685369    8.279158   18.720727 hL   24 LAL     0.0112 ****
948 H7S    35.704088    7.549755   17.120681 hL   24 LAL     0.0112 ****
949 C16    36.928226    9.342373   17.283957 cD   24 LAL    -0.0196 ****
950 H6R    37.787513    9.091551   16.658789 hL   24 LAL     0.0102 ****
951 H6S    37.303042    9.968195   18.097176 hL   24 LAL     0.0102 ****
952 C15    35.940090   10.150595   16.410758 cD   24 LAL    -0.0157 ****
953 H5R    35.698108    9.568640   15.521644 hL   24 LAL     0.0096 ****
954 H5S    36.442996   11.056968   16.068431 hL   24 LAL     0.0096 ****
955 C14    34.630378   10.529438   17.140165 cD   24 LAL    -0.0241 ****
956 H4R    34.860300   10.901613   18.139336 hL   24 LAL     0.0206 ****
957 H4S    34.014423    9.637845   17.263546 hL   24 LAL     0.0206 ****
958 C13    33.817171   11.613174   16.392844 cD   24 LAL     0.0015 ****
959 H3R    34.388769   12.543611   16.376479 hL   24 LAL     0.0191 ****
960 H3S    32.903741   11.801577   16.959442 hL   24 LAL     0.0191 ****
961 C12    33.439560   11.218419   14.949227 cD   24 LAL    -0.1722 ****
962 H2R    32.741086   11.956284   14.553893 hL   24 LAL     0.0544 ****
963 H2S    34.341189   11.214116   14.338769 hL   24 LAL     0.0544 ****
964 C1    -21.928169   -4.455807    0.870035 cA   25 CHL    -0.0317 ****
965 H11   -22.197169   -4.200807   -0.152965 hA   25 CHL     0.0094 ****
966 H12   -22.322169   -5.448807    1.053035 hA   25 CHL     0.0094 ****
967 C2    -20.401169   -4.503807    0.967035 cA   25 CHL    -0.0881 ****
968 H21   -20.078169   -4.860807    1.940035 hA   25 CHL     0.0446 ****
969 H22   -20.008169   -5.200807    0.233035 hA   25 CHL     0.0446 ****
970 C3    -19.795169   -3.131807    0.732035 cA   25 CHL     0.2936 ****
971 H31   -20.035169   -2.810807   -0.281965 hE   25 CHL     0.0296 ****
972 C4    -20.379169   -2.123807    1.720035 cA   25 CHL    -0.1622 ****
973 H41   -20.024169   -2.397807    2.711035 hA   25 CHL     0.0900 ****
974 H42   -19.989169   -1.130807    1.514035 hA   25 CHL     0.0900 ****
975 C5    -21.894169   -2.091807    1.679035 cB   25 CHL    -0.1395 ****
976 C6    -22.534169   -0.945807    1.521035 cB   25 CHL    -0.2082 ****
977 H61   -21.957169   -0.040807    1.405035 hB   25 CHL     0.1228 ****
978 C7    -24.026169   -0.780807    1.490035 cA   25 CHL    -0.0699 ****
979 H71   -24.302169    0.083193    2.089035 hA   25 CHL     0.0479 ****
980 H72   -24.335169   -0.543807    0.472035 hA   25 CHL     0.0479 ****
981 C8    -24.772169   -2.022807    1.984035 cA   25 CHL    -0.0114 ****
982 H81   -24.703169   -2.040807    3.069035 hA   25 CHL     0.0729 ****
983 C9    -24.111169   -3.292807    1.405035 cA   25 CHL     0.0196 ****
984 H91   -24.107169   -3.151807    0.324035 hA   25 CHL     0.0293 ****
985 C10   -22.613169   -3.438807    1.823035 cA   25 CHL     0.0791 ****
986 C11   -24.954169   -4.552807    1.685035 cA   25 CHL    -0.0664 ****
987 H111  -24.540169   -5.396807    1.142035 hA   25 CHL     0.0301 ****
988 H112  -24.895169   -4.815807    2.734035 hA   25 CHL     0.0301 ****
989 C12   -26.435169   -4.415807    1.297035 cA   25 CHL    -0.0650 ****
990 H121  -26.517169   -4.308807    0.217035 hA   25 CHL     0.0104 ****
991 H122  -26.937169   -5.341807    1.553035 hA   25 CHL     0.0104 ****
992 C13   -27.094169   -3.198807    1.967035 cA   25 CHL     0.0574 ****
993 C14   -26.244169   -1.971807    1.568035 cA   25 CHL     0.0058 ****
994 H141  -26.244169   -1.966807    0.477035 hA   25 CHL     0.0316 ****
995 C15   -27.087169   -0.771807    2.000035 cA   25 CHL    -0.1020 ****
996 H151  -26.929169   -0.543807    3.051035 hA   25 CHL     0.0265 ****
997 H152  -26.842169    0.128193    1.446035 hA   25 CHL     0.0265 ****
998 C16   -28.538169   -1.235807    1.740035 cA   25 CHL    -0.0921 ****
999 H161  -29.162169   -1.056807    2.610035 hA   25 CHL     0.0333 ****
1000 H162  -28.982169   -0.677807    0.925035 hA   25 CHL     0.0333 ****
1001 C17   -28.484169   -2.758807    1.406035 cA   25 CHL     0.0324 ****
1002 H171  -28.419169   -2.859807    0.323035 hA   25 CHL     0.0166 ****
1003 C18   -27.171169   -3.393807    3.495035 cA   25 CHL    -0.1150 ****
1004 H181  -27.687169   -2.574807    3.983035 hA   25 CHL     0.0245 ****
1005 H182  -26.194169   -3.471807    3.953035 hA   25 CHL     0.0245 ****
1006 H183  -27.711169   -4.302807    3.739035 hA   25 CHL     0.0245 ****
1007 C19   -22.469169   -3.923807    3.284035 cA   25 CHL    -0.1081 ****
1008 H191  -23.046169   -3.305807    3.963035 hA   25 CHL     0.0340 ****
1009 H192  -21.440169   -3.884807    3.617035 hA   25 CHL     0.0340 ****
1010 H193  -22.799169   -4.949807    3.397035 hA   25 CHL     0.0340 ****
1011 C20   -29.766169   -3.505807    1.846035 cD   25 CHL     0.0443 ****
1012 H201  -29.892169   -3.358807    2.918035 hL   25 CHL     0.0210 ****
1013 C21   -29.705169   -5.015807    1.580035 cD   25 CHL    -0.1546 ****
1014 H211  -28.955169   -5.506807    2.186035 hL   25 CHL     0.0363 ****
1015 H212  -29.476169   -5.218807    0.537035 hL   25 CHL     0.0363 ****
1016 H213  -30.650169   -5.494807    1.807035 hL   25 CHL     0.0363 ****
1017 C22   -31.000169   -2.893807    1.148035 cD   25 CHL    -0.0390 ****
1018 H221  -30.949169   -1.811807    1.206035 hL   25 CHL     0.0084 ****
1019 H222  -30.962169   -3.139807    0.087035 hL   25 CHL     0.0084 ****
1020 C23   -32.357169   -3.321807    1.720035 cD   25 CHL    -0.0285 ****
1021 H231  -32.487169   -4.392807    1.619035 hL   25 CHL     0.0157 ****
1022 H232  -32.377169   -3.107807    2.788035 hL   25 CHL     0.0157 ****
1023 C24   -33.523169   -2.597807    1.040035 cD   25 CHL    -0.1256 ****
1024 H241  -33.343169   -1.525807    1.093035 hL   25 CHL     0.0401 ****
1025 H242  -33.535169   -2.849807   -0.019965 hL   25 CHL     0.0401 ****
1026 C25   -34.911169   -2.882807    1.637035 cD   25 CHL     0.2124 ****
1027 H251  -34.869169   -2.653807    2.701035 hL   25 CHL    -0.0025 ****
1028 C26   -35.330169   -4.348807    1.487035 cD   25 CHL    -0.2578 ****
1029 H261  -34.659169   -5.021807    2.009035 hL   25 CHL     0.0580 ****
1030 H262  -35.348169   -4.641807    0.440035 hL   25 CHL     0.0580 ****
1031 H263  -36.327169   -4.507807    1.889035 hL   25 CHL     0.0580 ****
1032 C27   -35.961169   -1.963807    1.004035 cD   25 CHL    -0.2578 ****
1033 H271  -35.704169   -0.917807    1.139035 hL   25 CHL     0.0580 ****
1034 H272  -36.941169   -2.124807    1.443035 hL   25 CHL     0.0580 ****
1035 H273  -36.045169   -2.147807   -0.064965 hL   25 CHL     0.0580 ****
1036 O1    -18.401169   -3.248807    0.875035 oH   25 CHL    -0.7030 ****
1037 HO1   -17.992169   -2.416807    0.685035 hO   25 CHL     0.4148 ****
@<TRIPOS>BOND
    1    74    73 1
    2    75    74 1
    3    76    74 1
    4    77    74 1
    5    78    77 1
    6    79    77 1
    7    80    77 1
    8    81    80 1
    9    82    80 1
   10    83    80 1
   11    84    83 1
   12    85    83 1
   13    86    83 1
   14    87    86 1
   15    88    86 1
   16    89    86 1
   17    90    89 1
   18    91    89 1
   19    92    89 1
   20    93    92 1
   21    94    92 1
   22    95    92 1
   23    96    95 1
   24    97    95 1
   25    98    95 1
   26    99    98 1
   27   100    98 1
   28   101    98 1
   29   102   101 1
   30   103   101 1
   31   104   101 1
   32   105   104 1
   33   106   104 1
   34    36    35 1
   35    37    35 1
   36    38    37 1
   37    39    38 1
   38    40    38 1
   39    41    38 1
   40    42    41 1
   41    43    41 1
   42    44    43 1
   43    45    43 1
   44    46    43 1
   45    47    46 1
   46    48    47 1
   47    49    48 1
   48    50    49 1
   49    51    49 1
   50    52    49 1
   51    53    52 1
   52    54    52 1
   53    55    52 1
   54    56    55 1
   55    57    56 1
   56    58    56 1
   57    59    56 1
   58    60    55 1
   59    61    60 1
   60    62    60 1
   61    63    60 1
   62    64    55 1
   63    65    64 1
   64    66    64 1
   65    67    64 1
   66    68    47 1
   67    69    47 1
   68    70    41 1
   69    71    70 1
   70    71   104 1
   71    72    71 1
   72     2     1 1
   73     3     2 1
   74     4     2 1
   75     5     2 1
   76     6     5 1
   77     7     5 1
   78     8     5 1
   79     9     8 1
   80    10     8 1
   81    11     8 1
   82    12    11 1
   83    13    11 1
   84    14    11 1
   85    15    14 1
   86    16    14 1
   87    17    14 1
   88    18    17 1
   89    19    17 1
   90    20    17 1
   91    21    20 1
   92    22    20 1
   93    23    20 1
   94    24    23 1
   95    25    23 1
   96    26    23 1
   97    27    26 1
   98    28    26 1
   99    29    26 1
  100    30    29 1
  101    31    29 1
  102    32    29 1
  103    32    35 1
  104    33    32 1
  105    34    32 1
  106   108   107 1
  107   109   108 1
  108   110   108 1
  109   111   108 1
  110   112   111 1
  111   113   111 1
  112   114   111 1
  113   115   114 1
  114   116   114 1
  115   117   114 1
  116   118   117 1
  117   119   117 1
  118   120   117 1
  119   121   120 1
  120   122   120 1
  121   123   120 1
  122   124   123 1
  123   125   123 1
  124   126   123 1
  125   127   126 1
  126   128   126 1
  127   129   126 1
  128   130   129 1
  129   131   129 1
  130   132   129 1
  131   133   132 1
  132   134   132 1
  133   135   132 1
  134   136   135 1
  135   137   135 1
  136   138   135 1
  137   139   138 1
  138   140   138 1
  139   141   138 1
  140   142   141 1
  141   143   141 1
  142   144   141 1
  143   144   147 1
  144   145   144 1
  145   146   144 1
  146   148   147 1
  147   149   147 1
  148   150   149 1
  149   151   150 1
  150   152   150 1
  151   153   150 1
  152   154   153 1
  153   155   153 1
  154   156   155 1
  155   157   155 1
  156   158   155 1
  157   159   158 1
  158   160   159 1
  159   161   160 1
  160   162   161 1
  161   163   161 1
  162   164   161 1
  163   165   164 1
  164   166   164 1
  165   167   164 1
  166   168   167 1
  167   169   168 1
  168   170   168 1
  169   171   168 1
  170   172   167 1
  171   173   172 1
  172   174   172 1
  173   175   172 1
  174   176   167 1
  175   177   176 1
  176   178   176 1
  177   179   176 1
  178   180   159 1
  179   181   159 1
  180   182   153 1
  181   183   182 1
  182   183   222 1
  183   184   183 1
  184   186   185 1
  185   187   186 1
  186   188   186 1
  187   189   186 1
  188   190   189 1
  189   191   189 1
  190   192   189 1
  191   193   192 1
  192   194   192 1
  193   195   192 1
  194   196   195 1
  195   197   195 1
  196   198   195 1
  197   199   198 1
  198   200   198 1
  199   201   198 1
  200   202   201 1
  201   203   201 1
  202   204   201 1
  203   205   204 1
  204   206   204 1
  205   207   204 1
  206   208   207 1
  207   209   207 1
  208   210   207 1
  209   211   210 1
  210   212   210 1
  211   213   210 1
  212   214   213 1
  213   215   213 1
  214   216   213 1
  215   217   216 1
  216   218   216 1
  217   219   216 1
  218   220   219 1
  219   221   219 1
  220   222   219 1
  221   223   222 1
  222   224   222 1
  223   226   225 1
  224   227   225 1
  225   228   225 1
  226   229   225 1
  227   230   229 1
  228   231   229 1
  229   232   229 1
  230   233   232 1
  231   234   232 1
  232   235   232 1
  233   236   235 1
  234   237   235 1
  235   238   235 1
  236   239   238 1
  237   240   238 1
  238   241   238 1
  239   242   241 1
  240   243   241 1
  241   244   241 1
  242   245   244 1
  243   246   244 1
  244   247   244 1
  245   248   247 1
  246   249   247 1
  247   250   247 1
  248   251   250 1
  249   252   250 1
  250   253   250 1
  251   254   253 1
  252   255   253 1
  253   256   253 1
  254   257   256 1
  255   258   256 1
  256   259   256 1
  257   260   259 1
  258   261   259 1
  259   262   259 1
  260   263   262 1
  261   264   262 1
  262   265   262 1
  263   266   265 1
  264   267   265 1
  265   268   265 1
  266   268   271 1
  267   269   268 1
  268   270   268 1
  269   272   271 1
  270   273   271 1
  271   274   273 1
  272   275   274 1
  273   276   274 1
  274   277   274 1
  275   278   277 1
  276   279   277 1
  277   280   279 1
  278   281   279 1
  279   282   279 1
  280   283   282 1
  281   284   283 1
  282   285   284 1
  283   286   285 1
  284   287   285 1
  285   288   285 1
  286   289   288 1
  287   290   288 1
  288   291   288 1
  289   292   291 1
  290   293   291 1
  291   294   291 1
  292   295   283 1
  293   296   283 1
  294   297   277 1
  295   298   297 1
  296   298   343 1
  297   299   298 1
  298   301   300 1
  299   302   300 1
  300   303   300 1
  301   304   300 1
  302   305   304 1
  303   306   304 1
  304   307   304 1
  305   308   307 1
  306   309   307 1
  307   310   307 1
  308   311   310 1
  309   312   310 1
  310   313   310 1
  311   314   313 1
  312   315   313 1
  313   316   313 1
  314   317   316 1
  315   318   316 1
  316   319   316 1
  317   320   319 1
  318   321   319 1
  319   322   319 1
  320   323   322 1
  321   324   322 1
  322   325   322 1
  323   326   325 1
  324   327   325 1
  325   328   325 1
  326   329   328 1
  327   330   328 1
  328   331   328 1
  329   332   331 1
  330   333   331 1
  331   334   331 1
  332   335   334 1
  333   336   334 1
  334   337   334 1
  335   338   337 1
  336   339   337 1
  337   340   337 1
  338   341   340 1
  339   342   340 1
  340   343   340 1
  341   344   343 1
  342   345   343 1
  343   346   396 1
  344   347   346 1
  345   348   346 1
  346   349   346 1
  347   350   349 1
  348   351   349 1
  349   352   349 1
  350   353   352 1
  351   354   352 1
  352   355   352 1
  353   356   355 1
  354   357   355 1
  355   358   355 1
  356   359   358 1
  357   360   358 1
  358   361   358 1
  359   362   361 1
  360   363   361 1
  361   364   361 1
  362   365   364 1
  363   366   364 1
  364   367   364 1
  365   368   367 1
  366   369   367 1
  367   370   369 1
  368   371   369 1
  369   372   371 1
  370   373   371 1
  371   374   371 1
  372   375   374 1
  373   376   374 1
  374   377   374 1
  375   378   377 1
  376   379   377 1
  377   380   377 1
  378   381   380 1
  379   382   380 1
  380   383   380 1
  381   384   383 1
  382   385   383 1
  383   386   383 1
  384   387   386 1
  385   388   386 1
  386   389   386 1
  387   390   389 1
  388   391   389 1
  389   392   389 1
  390   393   392 1
  391   394   392 1
  392   395   392 1
  393   397   396 1
  394   398   396 1
  395   399   398 1
  396   400   399 1
  397   401   399 1
  398   402   399 1
  399   403   402 1
  400   404   402 1
  401   405   404 1
  402   406   404 1
  403   407   404 1
  404   408   407 1
  405   409   408 1
  406   410   409 1
  407   411   410 1
  408   412   410 1
  409   413   410 1
  410   414   413 1
  411   415   413 1
  412   416   413 1
  413   417   416 1
  414   418   416 1
  415   419   416 1
  416   420   408 1
  417   421   408 1
  418   422   402 1
  419   423   422 1
  420   423   425 1
  421   424   423 1
  422   426   425 1
  423   427   425 1
  424   428   425 1
  425   429   428 1
  426   430   428 1
  427   431   428 1
  428   432   431 1
  429   433   431 1
  430   434   431 1
  431   435   434 1
  432   436   434 1
  433   437   434 1
  434   438   437 1
  435   439   437 1
  436   440   437 1
  437   441   440 1
  438   442   440 1
  439   443   440 1
  440   444   443 1
  441   445   443 1
  442   446   443 1
  443   447   446 1
  444   448   446 1
  445   449   448 1
  446   450   448 1
  447   451   450 1
  448   452   450 1
  449   453   450 1
  450   454   453 1
  451   455   453 1
  452   456   453 1
  453   457   456 1
  454   458   456 1
  455   459   456 1
  456   460   459 1
  457   461   459 1
  458   462   459 1
  459   463   462 1
  460   464   462 1
  461   465   462 1
  462   466   465 1
  463   467   465 1
  464   468   465 1
  465   469   468 1
  466   470   468 1
  467   471   468 1
  468   472   471 1
  469   473   471 1
  470   474   471 1
  471   476   475 1
  472   477   475 1
  473   478   475 1
  474   479   475 1
  475   480   479 1
  476   481   479 1
  477   482   479 1
  478   483   482 1
  479   484   482 1
  480   485   482 1
  481   486   485 1
  482   487   485 1
  483   488   485 1
  484   489   488 1
  485   490   488 1
  486   491   488 1
  487   492   491 1
  488   493   491 1
  489   494   491 1
  490   495   494 1
  491   496   494 1
  492   497   494 1
  493   498   497 1
  494   499   497 1
  495   500   497 1
  496   501   500 1
  497   502   500 1
  498   503   500 1
  499   504   503 1
  500   505   503 1
  501   506   503 1
  502   507   506 1
  503   508   506 1
  504   509   506 1
  505   510   509 1
  506   511   509 1
  507   512   509 1
  508   513   512 1
  509   514   512 1
  510   515   512 1
  511   516   515 1
  512   517   515 1
  513   518   515 1
  514   519   518 1
  515   520   518 1
  516   521   518 1
  517   522   521 1
  518   523   521 1
  519   524   521 1
  520   524   527 1
  521   525   524 1
  522   526   524 1
  523   528   527 1
  524   529   527 1
  525   530   529 1
  526   531   530 1
  527   532   530 1
  528   533   530 1
  529   534   533 1
  530   535   533 1
  531   536   535 1
  532   537   535 1
  533   538   535 1
  534   539   538 1
  535   540   539 1
  536   541   540 1
  537   542   541 1
  538   543   541 1
  539   544   541 1
  540   545   544 1
  541   546   544 1
  542   547   546 1
  543   548   546 1
  544   549   546 1
  545   550   544 1
  546   551   539 1
  547   552   539 1
  548   553   533 1
  549   554   553 1
  550   554   607 1
  551   555   554 1
  552   556   550 1
  553   557   550 1
  554   559   558 1
  555   560   558 1
  556   561   558 1
  557   562   558 1
  558   563   562 1
  559   564   562 1
  560   565   562 1
  561   566   565 1
  562   567   565 1
  563   568   565 1
  564   569   568 1
  565   570   568 1
  566   571   568 1
  567   572   571 1
  568   573   571 1
  569   574   571 1
  570   575   574 1
  571   576   574 1
  572   577   574 1
  573   578   577 1
  574   579   577 1
  575   580   577 1
  576   581   580 1
  577   582   580 1
  578   583   580 1
  579   584   583 1
  580   585   583 1
  581   586   583 1
  582   587   586 1
  583   588   586 1
  584   589   586 1
  585   590   589 1
  586   591   589 1
  587   592   589 1
  588   593   592 1
  589   594   592 1
  590   595   592 1
  591   596   595 1
  592   597   595 1
  593   598   595 1
  594   599   598 1
  595   600   598 1
  596   601   598 1
  597   602   601 1
  598   603   601 1
  599   604   601 1
  600   605   604 1
  601   606   604 1
  602   607   604 1
  603   608   607 1
  604   609   607 1
  605   611   610 1
  606   612   610 1
  607   613   610 1
  608   614   613 1
  609   615   613 1
  610   616   615 1
  611   617   615 1
  612   618   617 1
  613   619   617 1
  614   620   617 1
  615   621   620 1
  616   622   620 1
  617   623   622 1
  618   624   622 1
  619   625   624 1
  620   626   624 1
  621   627   624 1
  622   628   627 1
  623   629   627 1
  624   630   629 1
  625   631   629 1
  626   632   631 1
  627   633   631 1
  628   634   631 1
  629   635   634 1
  630   636   634 1
  631   637   636 1
  632   638   636 1
  633   639   638 1
  634   640   638 1
  635   641   638 1
  636   642   641 1
  637   643   641 1
  638   644   641 1
  639   644   660 1
  640   645   644 1
  641   646   644 1
  642   647   610 1
  643   648   647 1
  644   649   647 1
  645   650   647 1
  646   651   650 1
  647   652   650 1
  648   653   650 1
  649   654   653 1
  650   655   653 1
  651   656   653 1
  652   657   656 1
  653   658   656 1
  654   659   656 1
  655   661   660 1
  656   662   660 1
  657   663   662 1
  658   664   663 1
  659   665   663 1
  660   666   663 1
  661   667   666 1
  662   668   666 1
  663   669   668 1
  664   670   668 1
  665   671   668 1
  666   672   671 1
  667   673   672 1
  668   674   673 1
  669   675   674 1
  670   676   674 1
  671   677   674 1
  672   678   677 1
  673   679   677 1
  674   680   679 1
  675   681   679 1
  676   682   679 1
  677   683   677 1
  678   684   672 1
  679   685   672 1
  680   686   666 1
  681   687   686 1
  682   687   725 1
  683   688   687 1
  684   689   683 1
  685   690   683 1
  686   692   691 1
  687   693   691 1
  688   694   691 1
  689   695   694 1
  690   696   694 1
  691   697   696 1
  692   698   696 1
  693   699   698 1
  694   700   698 1
  695   701   698 1
  696   702   701 1
  697   703   701 1
  698   704   703 1
  699   705   703 1
  700   706   705 1
  701   707   705 1
  702   708   705 1
  703   709   708 1
  704   710   708 1
  705   711   710 1
  706   712   710 1
  707   713   712 1
  708   714   712 1
  709   715   712 1
  710   716   715 1
  711   717   715 1
  712   718   717 1
  713   719   717 1
  714   720   719 1
  715   721   719 1
  716   722   719 1
  717   723   722 1
  718   724   722 1
  719   725   722 1
  720   726   725 1
  721   727   725 1
  722   728   691 1
  723   729   728 1
  724   730   728 1
  725   731   728 1
  726   732   731 1
  727   733   731 1
  728   734   731 1
  729   735   734 1
  730   736   734 1
  731   737   734 1
  732   738   737 1
  733   739   737 1
  734   740   737 1
  735   742   741 1
  736   743   741 1
  737   744   743 1
  738   745   743 1
  739   746   743 1
  740   747   746 1
  741   748   746 1
  742   749   748 1
  743   750   748 1
  744   751   750 1
  745   752   750 1
  746   753   750 1
  747   754   753 1
  748   755   753 1
  749   756   755 1
  750   757   755 1
  751   758   757 1
  752   759   757 1
  753   760   757 1
  754   761   760 1
  755   762   760 1
  756   763   762 1
  757   764   762 1
  758   765   764 1
  759   766   764 1
  760   767   764 1
  761   768   767 1
  762   769   767 1
  763   770   769 1
  764   771   769 1
  765   772   771 1
  766   773   771 1
  767   774   771 1
  768   774   793 1
  769   775   774 1
  770   776   774 1
  771   777   741 1
  772   778   777 1
  773   779   777 1
  774   780   779 1
  775   781   779 1
  776   782   779 1
  777   783   782 1
  778   784   782 1
  779   785   784 1
  780   786   784 1
  781   787   786 1
  782   788   786 1
  783   789   786 1
  784   790   789 1
  785   791   789 1
  786   792   789 1
  787   794   793 1
  788   795   793 1
  789   796   795 1
  790   797   796 1
  791   798   796 1
  792   799   796 1
  793   800   799 1
  794   801   799 1
  795   802   801 1
  796   803   801 1
  797   804   801 1
  798   805   804 1
  799   806   805 1
  800   807   806 1
  801   808   807 1
  802   809   807 1
  803   810   807 1
  804   811   810 1
  805   812   810 1
  806   813   812 1
  807   814   810 1
  808   815   814 1
  809   816   814 1
  810   817   805 1
  811   818   805 1
  812   819   799 1
  813   820   819 1
  814   820   857 1
  815   821   820 1
  816   822   814 1
  817   823   822 1
  818   825   824 1
  819   826   824 1
  820   827   826 1
  821   828   826 1
  822   829   826 1
  823   830   829 1
  824   831   829 1
  825   832   831 1
  826   833   831 1
  827   834   833 1
  828   835   833 1
  829   836   833 1
  830   837   836 1
  831   838   836 1
  832   839   838 1
  833   840   838 1
  834   841   840 1
  835   842   840 1
  836   843   840 1
  837   844   843 1
  838   845   843 1
  839   846   845 1
  840   847   845 1
  841   848   847 1
  842   849   847 1
  843   850   847 1
  844   851   850 1
  845   852   850 1
  846   853   852 1
  847   854   852 1
  848   855   854 1
  849   856   854 1
  850   857   854 1
  851   858   857 1
  852   859   857 1
  853   860   824 1
  854   861   860 1
  855   862   860 1
  856   863   862 1
  857   864   862 1
  858   865   862 1
  859   866   865 1
  860   867   865 1
  861   868   867 1
  862   869   867 1
  863   870   869 1
  864   871   869 1
  865   872   869 1
  866   873   872 1
  867   874   872 1
  868   875   872 1
  869   877   876 1
  870   878   877 1
  871   879   877 1
  872   880   877 1
  873   881   880 1
  874   882   880 1
  875   883   880 1
  876   884   883 1
  877   885   883 1
  878   886   883 1
  879   887   886 1
  880   888   886 1
  881   889   886 1
  882   890   889 1
  883   891   889 1
  884   892   889 1
  885   893   892 1
  886   894   892 1
  887   895   892 1
  888   896   895 1
  889   897   895 1
  890   898   895 1
  891   899   898 1
  892   900   898 1
  893   901   898 1
  894   902   901 1
  895   903   901 1
  896   904   901 1
  897   905   904 1
  898   906   904 1
  899   907   904 1
  900   907   910 1
  901   908   907 1
  902   909   907 1
  903   911   910 1
  904   912   910 1
  905   913   912 1
  906   914   913 1
  907   915   913 1
  908   916   913 1
  909   917   916 1
  910   918   916 1
  911   919   918 1
  912   920   918 1
  913   921   918 1
  914   922   921 1
  915   923   922 1
  916   924   923 1
  917   925   922 1
  918   926   922 1
  919   927   916 1
  920   928   927 1
  921   928   961 1
  922   929   928 1
  923   931   930 1
  924   932   931 1
  925   933   931 1
  926   934   931 1
  927   935   934 1
  928   936   934 1
  929   937   934 1
  930   938   937 1
  931   939   937 1
  932   940   937 1
  933   941   940 1
  934   942   940 1
  935   943   940 1
  936   944   943 1
  937   945   943 1
  938   946   943 1
  939   947   946 1
  940   948   946 1
  941   949   946 1
  942   950   949 1
  943   951   949 1
  944   952   949 1
  945   953   952 1
  946   954   952 1
  947   955   952 1
  948   956   955 1
  949   957   955 1
  950   958   955 1
  951   959   958 1
  952   960   958 1
  953   961   958 1
  954   962   961 1
  955   963   961 1
  956  1036  1037 1
  957  1032  1033 1
  958  1032  1034 1
  959  1032  1035 1
  960  1028  1029 1
  961  1028  1030 1
  962  1028  1031 1
  963  1026  1027 1
  964  1026  1028 1
  965  1026  1032 1
  966  1023  1024 1
  967  1023  1025 1
  968  1023  1026 1
  969  1020  1021 1
  970  1020  1022 1
  971  1020  1023 1
  972  1017  1018 1
  973  1017  1019 1
  974  1017  1020 1
  975  1013  1014 1
  976  1013  1015 1
  977  1013  1016 1
  978  1011  1012 1
  979  1011  1013 1
  980  1011  1017 1
  981  1007  1008 1
  982  1007  1009 1
  983  1007  1010 1
  984  1003  1004 1
  985  1003  1005 1
  986  1003  1006 1
  987  1001  1002 1
  988  1001  1011 1
  989   998   999 1
  990   998  1000 1
  991   998  1001 1
  992   995   996 1
  993   995   997 1
  994   995   998 1
  995   993   994 1
  996   993   995 1
  997   992   993 1
  998   992  1001 1
  999   992  1003 1
 1000   989   990 1
 1001   989   991 1
 1002   989   992 1
 1003   986   987 1
 1004   986   988 1
 1005   986   989 1
 1006   985  1007 1
 1007   983   984 1
 1008   983   985 1
 1009   983   986 1
 1010   981   982 1
 1011   981   983 1
 1012   981   993 1
 1013   978   979 1
 1014   978   980 1
 1015   978   981 1
 1016   976   977 1
 1017   976   978 1
 1018   975   976 1
 1019   975   985 1
 1020   972   973 1
 1021   972   974 1
 1022   972   975 1
 1023   970   971 1
 1024   970   972 1
 1025   970  1036 1
 1026   967   968 1
 1027   967   969 1
 1028   967   970 1
 1029   964   965 1
 1030   964   966 1
 1031   964   967 1
 1032   964   985 1
@<TRIPOS>SUBSTRUCTURE
      1  LAL              1 ****               0 ****  **** 
      2   PC             35 ****               0 ****  **** 
      3  LAL             73 ****               0 ****  **** 
      4   MY            107 ****               0 ****  **** 
      5   PC            147 ****               0 ****  **** 
      6   MY            185 ****               0 ****  **** 
      7   PA            225 ****               0 ****  **** 
      8   PE            271 ****               0 ****  **** 
      9   PA            300 ****               0 ****  **** 
     10   OL            346 ****               0 ****  **** 
     11   PE            396 ****               0 ****  **** 
     12   OL            425 ****               0 ****  **** 
     13   ST            475 ****               0 ****  **** 
     14   PS            527 ****               0 ****  **** 
     15   ST            558 ****               0 ****  **** 
     16   AR            610 ****               0 ****  **** 
     17   PS            660 ****               0 ****  **** 
     18   AR            691 ****               0 ****  **** 
     19  DHA            741 ****               0 ****  **** 
     20  PGR            793 ****               0 ****  **** 
     21  DHA            824 ****               0 ****  **** 
     22  LAL            876 ****               0 ****  **** 
     23  PH-            910 ****               0 ****  **** 
     24  LAL            930 ****               0 ****  **** 
     25  CHL            964 ****               0 ****  **** 
