@<TRIPOS>MOLECULE
LA
  557   556    13     0     1 
SMALL
USER_CHARGES
@<TRIPOS>ATOM
  1 H12T   72.456000   10.844000   19.346000 hL    1 LA      0.0258     
  2 C112   71.871000   10.231000   18.815000 cD    1 LA     -0.1185     
  3 H12R   71.178000    9.870000   19.578000 hL    1 LA      0.0258     
  4 H12S   72.578000    9.424000   18.604000 hL    1 LA      0.0258     
  5 C111   71.063000   10.566000   17.542000 cD    1 LA      0.0233     
  6 H11R   71.736000   10.898000   16.748000 hL    1 LA      0.0083     
  7 H11S   70.381000   11.389000   17.765000 hL    1 LA      0.0083     
  8 C110   70.248000    9.346000   17.062000 cD    1 LA     -0.0196     
  9 H10R   69.657000    8.960000   17.896000 hL    1 LA      0.0152     
 10 H10S   70.930000    8.552000   16.748000 hL    1 LA      0.0152     
 11 C19    69.295000    9.709000   15.900000 cD    1 LA     -0.0220     
 12 H9R    69.867000   10.082000   15.047000 hL    1 LA      0.0059     
 13 H9S    68.620000   10.502000   16.225000 hL    1 LA      0.0059     
 14 C18    68.458000    8.485000   15.479000 cD    1 LA     -0.0209     
 15 H8R    67.960000    8.078000   16.362000 hL    1 LA      0.0104     
 16 H8S    69.123000    7.713000   15.091000 hL    1 LA      0.0104     
 17 C17    67.396000    8.833000   14.413000 cD    1 LA     -0.0193     
 18 H7R    67.887000    9.155000   13.492000 hL    1 LA      0.0112     
 19 H7S    66.788000    9.669000   14.765000 hL    1 LA      0.0112     
 20 C16    66.494000    7.608000   14.129000 cD    1 LA     -0.0196     
 21 H6R    66.260000    7.108000   15.071000 hL    1 LA      0.0102     
 22 H6S    67.042000    6.887000   13.518000 hL    1 LA      0.0102     
 23 C15    65.152000    7.963000   13.447000 cD    1 LA     -0.0157     
 24 H5R    64.552000    8.556000   14.137000 hL    1 LA      0.0096     
 25 H5S    64.602000    7.038000   13.264000 hL    1 LA      0.0096     
 26 C14    65.314000    8.740000   12.120000 cD    1 LA     -0.0241     
 27 H4R    66.094000    8.276000   11.515000 hL    1 LA      0.0206     
 28 H4S    65.638000    9.759000   12.335000 hL    1 LA      0.0206     
 29 C13    64.012000    8.783000   11.285000 cD    1 LA      0.0015     
 30 H3R    63.755000    7.770000   10.968000 hL    1 LA      0.0191     
 31 H3S    64.207000    9.367000   10.384000 hL    1 LA      0.0191     
 32 C12    62.815000    9.404000   12.036000 cD    1 LA     -0.1722     
 33 H2R    63.101000   10.354000   12.488000 hL    1 LA      0.0544     
 34 H2S    62.489000    8.734000   12.830000 hL    1 LA      0.0544     
 35 C11    61.661316    9.635328   11.092832 cC    2 PC      0.7836     
 36 O12    61.703788    9.364547    9.936938 oC    2 PC     -0.5997     
 37 O11    60.617294   10.168369   11.708845 oS    2 PC     -0.4550     
 38 C1     59.458915   10.438516   10.929533 cA    2 PC      0.0159     
 39 HR     59.050703    9.513641   10.550811 hE    2 PC      0.1198     
 40 HS     59.721487   11.075597   10.097442 hE    2 PC      0.1198     
 41 C2     58.460197   11.118694   11.837962 cA    2 PC      0.0914     
 42 HX     58.337852   10.550110   12.744956 hE    2 PC      0.1426     
 43 C3     57.109912   11.321599   11.169225 cA    2 PC      0.0105     
 44 HA     57.215128   11.874383   10.245558 hE    2 PC      0.0971     
 45 HB     56.465412   11.880249   11.836394 hE    2 PC      0.0971     
 46 O31    56.571404   10.047370   10.921041 oT    2 PC     -0.4224     
 47 P31    55.154693    9.897675   10.177430 pA    2 PC      1.1499     
 48 O32    54.191407   10.222065   11.498230 oT    2 PC     -0.4442     
 49 C31    52.829886   10.282201   11.259009 cA    2 PC      0.1831     
 50 H1A    52.579995   10.071820   10.227271 hE    2 PC      0.0565     
 51 H1B    52.461292   11.282457   11.467395 hE    2 PC      0.0565     
 52 C32    52.062115    9.368375   12.204821 cA    2 PC     -0.0105     
 53 H2A    51.001111    9.526453   12.058086 hX    2 PC      0.0802     
 54 H2B    52.311948    9.615133   13.226619 hX    2 PC      0.0802     
 55 N31    52.278356    7.874680   12.072949 nA    2 PC      0.0718     
 56 C33    52.095334    7.415835   10.657716 cA    2 PC     -0.1588     
 57 H3A    51.147497    7.788123   10.293928 hX    2 PC      0.1177     
 58 H3B    52.086752    6.336010   10.656008 hX    2 PC      0.1177     
 59 H3C    52.923326    7.772657   10.063726 hX    2 PC      0.1177     
 60 C34    53.647071    7.459245   12.542686 cA    2 PC     -0.1588     
 61 H4A    53.818772    7.886526   13.518731 hX    2 PC      0.1177     
 62 H4B    54.379688    7.796421   11.831382 hX    2 PC      0.1177     
 63 H4C    53.654037    6.380581   12.603795 hX    2 PC      0.1177     
 64 C35    51.264512    7.210538   12.934622 cA    2 PC     -0.1588     
 65 H5A    51.385224    7.550564   13.952411 hX    2 PC      0.1177     
 66 H5B    51.407487    6.141290   12.890860 hX    2 PC      0.1177     
 67 H5C    50.273662    7.457290   12.581400 hX    2 PC      0.1177     
 68 O33    54.934108    8.464004    9.891299 oP    2 PC     -0.7807     
 69 O34    54.939166   10.958265    9.192228 oP    2 PC     -0.7807     
 70 O21    58.998714   12.401770   12.155245 oS    2 PC     -0.4195     
 71 C21    58.781126   12.922125   13.355951 cC    2 PC      0.7704     
 72 O22    58.122172   12.405258   14.198982 oC    2 PC     -0.5969     
 73 H12T   60.942429    4.966750   21.278057 hL    3 LA      0.0258     
 74 C112   61.187955    5.896113   21.002455 cD    3 LA     -0.1185     
 75 H12R   62.089923    5.721126   20.412055 hL    3 LA      0.0258     
 76 H12S   61.499986    6.307345   21.966376 hL    3 LA      0.0258     
 77 C111   60.307754    6.922052   20.255251 cD    3 LA      0.0233     
 78 H11R   59.412010    7.143243   20.840320 hL    3 LA      0.0083     
 79 H11S   59.986024    6.485106   19.307754 hL    3 LA      0.0083     
 80 C110   61.086181    8.225516   19.975866 cD    3 LA     -0.0196     
 81 H10R   62.029576    7.980029   19.482334 hL    3 LA      0.0152     
 82 H10S   61.328706    8.715813   20.921882 hL    3 LA      0.0152     
 83 C19    60.287003    9.193315   19.073146 cD    3 LA     -0.0220     
 84 H9R    59.345340    9.466405   19.555448 hL    3 LA      0.0059     
 85 H9S    60.050673    8.693070   18.132932 hL    3 LA      0.0059     
 86 C18    61.110566   10.460293   18.769014 cD    3 LA     -0.0209     
 87 H8R    62.080429   10.161581   18.364689 hL    3 LA      0.0104     
 88 H8S    61.293546   10.999911   19.698575 hL    3 LA      0.0104     
 89 C17    60.407018   11.395241   17.760949 cD    3 LA     -0.0193     
 90 H7R    59.477700   11.773514   18.192554 hL    3 LA      0.0112     
 91 H7S    60.141337   10.829976   16.865207 hL    3 LA      0.0112     
 92 C16    61.332255   12.576907   17.383474 cD    3 LA     -0.0196     
 93 H6R    62.351277   12.207560   17.251949 hL    3 LA      0.0102     
 94 H6S    61.361424   13.293342   18.207692 hL    3 LA      0.0102     
 95 C15    60.927636   13.296141   16.075384 cD    3 LA     -0.0157     
 96 H5R    61.054853   12.607255   15.240518 hL    3 LA      0.0096     
 97 H5S    61.617769   14.125436   15.909253 hL    3 LA      0.0096     
 98 C14    59.474572   13.824813   16.079002 cD    3 LA     -0.0241     
 99 H4R    59.266392   14.321789   17.027367 hL    3 LA      0.0206     
100 H4S    58.783966   12.984486   15.998528 hL    3 LA      0.0206     
101 C13    59.195952   14.826992   14.933451 cD    3 LA      0.0015     
102 H3R    59.802920   15.722336   15.083974 hL    3 LA      0.0191     
103 H3S    58.149011   15.128674   14.994977 hL    3 LA      0.0191     
104 C12    59.470579   14.252273   13.527489 cD    3 LA     -0.1722     
105 H2R    59.101320   14.956146   12.781292 hL    3 LA      0.0544     
106 H2S    60.544998   14.127196   13.402627 hL    3 LA      0.0544     
107 C116  -10.262000   -0.302000   -0.549000 cD    4 PA     -0.1254     
108 H16R  -10.644000   -0.891000   -1.377000 hL    4 PA      0.0290     
109 H16S  -10.859000    0.603000   -0.483000 hL    4 PA      0.0290     
110 H16T  -10.424000   -0.870000    0.363000 hL    4 PA      0.0290     
111 C115   -8.781000    0.025000   -0.737000 cD    4 PA      0.0140     
112 H15R   -8.648000    0.570000   -1.670000 hL    4 PA      0.0093     
113 H15S   -8.224000   -0.902000   -0.843000 hL    4 PA      0.0093     
114 C114   -8.209000    0.854000    0.416000 cD    4 PA     -0.0201     
115 H14R   -8.302000    0.290000    1.344000 hL    4 PA      0.0159     
116 H14S   -8.824000    1.743000    0.541000 hL    4 PA      0.0159     
117 C113   -6.751000    1.293000    0.235000 cD    4 PA     -0.0331     
118 H13R   -6.500000    1.986000    1.035000 hL    4 PA      0.0146     
119 H13S   -6.660000    1.857000   -0.692000 hL    4 PA      0.0146     
120 C112   -5.730000    0.153000    0.237000 cD    4 PA     -0.0276     
121 H12R   -5.920000   -0.519000   -0.596000 hL    4 PA      0.0114     
122 H12S   -5.856000   -0.439000    1.142000 hL    4 PA      0.0114     
123 C111   -4.284000    0.648000    0.155000 cD    4 PA     -0.0252     
124 H11R   -4.084000    1.312000    0.994000 hL    4 PA      0.0143     
125 H11S   -4.160000    1.248000   -0.744000 hL    4 PA      0.0143     
126 C110   -3.256000   -0.485000    0.151000 cD    4 PA     -0.0288     
127 H10R   -3.455000   -1.148000   -0.689000 hL    4 PA      0.0147     
128 H10S   -3.381000   -1.087000    1.050000 hL    4 PA      0.0147     
129 C19    -1.811000    0.010000    0.072000 cD    4 PA     -0.0305     
130 H9R    -1.612000    0.673000    0.913000 hL    4 PA      0.0139     
131 H9S    -1.685000    0.612000   -0.826000 hL    4 PA      0.0139     
132 C18    -0.782000   -1.123000    0.068000 cD    4 PA     -0.0158     
133 H8R    -0.983000   -1.787000   -0.770000 hL    4 PA      0.0091     
134 H8S    -0.906000   -1.724000    0.968000 hL    4 PA      0.0091     
135 C17     0.663000   -0.628000   -0.013000 cD    4 PA     -0.0196     
136 H7R     0.854000    0.045000    0.820000 hL    4 PA      0.0110     
137 H7S     0.790000   -0.036000   -0.919000 hL    4 PA      0.0110     
138 C16     1.685000   -1.769000   -0.010000 cD    4 PA     -0.0244     
139 H6R     1.433000   -2.463000   -0.809000 hL    4 PA      0.0133     
140 H6S     1.595000   -2.331000    0.918000 hL    4 PA      0.0133     
141 C15     3.142000   -1.328000   -0.195000 cD    4 PA     -0.0294     
142 H5R     3.227000   -0.783000   -1.132000 hL    4 PA      0.0168     
143 H5S     3.759000   -2.218000   -0.304000 hL    4 PA      0.0168     
144 C14     3.698000   -0.485000    0.958000 cD    4 PA     -0.0301     
145 H4R     3.490000   -0.997000    1.896000 hL    4 PA      0.0209     
146 H4S     3.179000    0.468000    1.010000 hL    4 PA      0.0209     
147 C13     5.207000   -0.229000    0.884000 cD    4 PA     -0.0049     
148 H3R     5.739000   -1.174000    0.848000 hL    4 PA      0.0190     
149 H3S     5.519000    0.273000    1.796000 hL    4 PA      0.0190     
150 C12     5.627000    0.634000   -0.318000 cD    4 PA     -0.1493     
151 H2R     5.083000    1.570000   -0.321000 hL    4 PA      0.0473     
152 H2S     5.426000    0.112000   -1.246000 hL    4 PA      0.0473     
153 C11     7.102305    0.940703   -0.259061 cC    5 PC      0.7836     
154 O12     7.811574    0.552327    0.611180 oC    5 PC     -0.5997     
155 O11     7.494919    1.683670   -1.282505 oS    5 PC     -0.4550     
156 C1      8.868629    2.045655   -1.346041 cA    5 PC      0.0159     
157 HR      9.473877    1.159515   -1.463911 hE    5 PC      0.1198     
158 HS      9.153971    2.549489   -0.433943 hE    5 PC      0.1198     
159 C2      9.034074    2.955782   -2.541708 cA    5 PC      0.0914     
160 HX      8.589149    2.505717   -3.413704 hE    5 PC      0.1426     
161 C3     10.490637    3.291565   -2.819778 cA    5 PC      0.0105     
162 HA     10.960195    3.727000   -1.948163 hE    5 PC      0.0971     
163 HB     10.539938    4.004737   -3.633129 hE    5 PC      0.0971     
164 O31    11.133802    2.094485   -3.178362 oT    5 PC     -0.4224     
165 P31    12.708214    2.085972   -3.500214 pA    5 PC      1.1499     
166 O32    12.606087    2.682099   -5.053231 oT    5 PC     -0.4442     
167 C31    13.808848    2.922132   -5.693805 cA    5 PC      0.1831     
168 H1A    14.663337    2.649568   -5.088210 hE    5 PC      0.0565     
169 H1B    13.908888    3.982228   -5.908249 hE    5 PC      0.0565     
170 C32    13.858683    2.233487   -7.051153 cA    5 PC     -0.0105     
171 H2A    14.764926    2.533894   -7.561768 hX    5 PC      0.0802     
172 H2B    13.008509    2.540842   -7.642857 hX    5 PC      0.0802     
173 N31    13.855516    0.718648   -7.074138 nA    5 PC      0.0718     
174 C33    14.913061    0.153276   -6.174764 cA    5 PC     -0.1588     
175 H3A    15.856484    0.625625   -6.411775 hX    5 PC      0.1177     
176 H3B    14.979694   -0.907658   -6.364706 hX    5 PC      0.1177     
177 H3C    14.625518    0.320228   -5.147552 hX    5 PC      0.1177     
178 C34    12.521493    0.151147   -6.668003 cA    5 PC     -0.1588     
179 H4A    11.750836    0.643231   -7.241286 hX    5 PC      0.1177     
180 H4B    12.382788    0.301387   -5.612277 hX    5 PC      0.1177     
181 H4C    12.536478   -0.904698   -6.896618 hX    5 PC      0.1177     
182 C35    14.135445    0.304177   -8.474602 cA    5 PC     -0.1588     
183 H5A    13.382805    0.722289   -9.126367 hX    5 PC      0.1177     
184 H5B    14.110474   -0.773363   -8.537332 hX    5 PC      0.1177     
185 H5C    15.112412    0.660583   -8.767767 hX    5 PC      0.1177     
186 O33    13.137493    0.680449   -3.661969 oP    5 PC     -0.7807     
187 O34    13.437446    3.062949   -2.690484 oP    5 PC     -0.7807     
188 O21     8.346935    4.168478   -2.234849 oS    5 PC     -0.4195     
189 C21     7.731605    4.833148   -3.204071 cC    5 PC      0.7704     
190 O22     7.740109    4.508273   -4.347075 oC    5 PC     -0.5969     
191 C116   18.424282   12.285206  -11.873165 cD    6 PA     -0.1254     
192 H16R   18.990303   11.536925  -12.419172 hL    6 PA      0.0290     
193 H16S   19.131693   12.994142  -11.452724 hL    6 PA      0.0290     
194 H16T   17.808059   12.821311  -12.589734 hL    6 PA      0.0290     
195 C115   17.567245   11.645652  -10.781335 cD    6 PA      0.0140     
196 H15R   18.209145   11.095298  -10.095566 hL    6 PA      0.0093     
197 H15S   16.905116   10.912680  -11.234271 hL    6 PA      0.0093     
198 C114   16.752854   12.674331   -9.992399 cD    6 PA     -0.0201     
199 H14R   16.078200   13.195156  -10.671747 hL    6 PA      0.0159     
200 H14S   17.433011   13.430361   -9.605132 hL    6 PA      0.0159     
201 C113   15.946930   12.099732   -8.821259 cD    6 PA     -0.0331     
202 H13R   15.528769   12.928280   -8.253896 hL    6 PA      0.0146     
203 H13S   16.622451   11.580554   -8.143151 hL    6 PA      0.0146     
204 C112   14.809236   11.158162   -9.222683 cD    6 PA     -0.0276     
205 H12R   15.209619   10.286725   -9.734409 hL    6 PA      0.0114     
206 H12S   14.162642   11.662670   -9.938751 hL    6 PA      0.0114     
207 C111   13.972760   10.691427   -8.028894 cD    6 PA     -0.0252     
208 H11R   13.558784   11.559750   -7.519526 hL    6 PA      0.0143     
209 H11S   14.620013   10.196042   -7.308315 hL    6 PA      0.0143     
210 C110   12.835911    9.745225   -8.419743 cD    6 PA     -0.0288     
211 H10R   13.250091    8.876127   -8.927576 hL    6 PA      0.0147     
212 H10S   12.188700   10.240154   -9.142511 hL    6 PA      0.0147     
213 C19    11.998391    9.281281   -7.227012 cD    6 PA     -0.0305     
214 H9R    11.583618   10.151165   -6.719355 hL    6 PA      0.0139     
215 H9S    12.644280    8.786709   -6.503887 hL    6 PA      0.0139     
216 C18    10.860812    8.334648   -7.617329 cD    6 PA     -0.0158     
217 H8R    11.274926    7.467542   -8.127405 hL    6 PA      0.0091     
218 H8S    10.212624    8.830378   -8.338912 hL    6 PA      0.0091     
219 C17    10.024474    7.869130   -6.424248 cD    6 PA     -0.0196     
220 H7R     9.623705    8.740580   -5.911161 hL    6 PA      0.0110     
221 H7S    10.670930    7.363406   -5.707472 hL    6 PA      0.0110     
222 C16     8.885115    6.927475   -6.826143 cD    6 PA     -0.0244     
223 H6R     9.303071    6.099702   -7.395042 hL    6 PA      0.0133     
224 H6S     8.208960    7.447896   -7.502238 hL    6 PA      0.0133     
225 C15     8.082974    6.351043   -5.653177 cD    6 PA     -0.0294     
226 H5R     8.762259    5.818162   -4.992247 hL    6 PA      0.0168     
227 H5S     7.391552    5.606305   -6.043013 hL    6 PA      0.0168     
228 C14     7.285065    7.392791   -4.861158 cD    6 PA     -0.0301     
229 H4R     6.706264    7.993907   -5.560373 hL    6 PA      0.0209     
230 H4S     7.960333    8.078438   -4.357000 hL    6 PA      0.0209     
231 C13     6.315797    6.799520   -3.833227 cD    6 PA     -0.0049     
232 H3R     5.624330    6.124423   -4.326645 hL    6 PA      0.0190     
233 H3S     5.721290    7.605495   -3.411256 hL    6 PA      0.0190     
234 C12     7.016608    6.054850   -2.684182 cD    6 PA     -0.1493     
235 H2R     7.729051    6.723318   -2.217689 hL    6 PA      0.0473     
236 H2S     6.272732    5.759155   -1.953920 hL    6 PA      0.0473     
237 H14T   72.992000   10.982000   21.559000 hL    7 MY      0.0255     
238 C114   73.387000   11.208000   20.669000 cD    7 MY     -0.1117     
239 H14R   74.081000   10.373000   20.543000 hL    7 MY      0.0255     
240 H14S   73.988000   12.092000   20.900000 hL    7 MY      0.0255     
241 C113   72.635000   11.469000   19.341000 cD    7 MY      0.0175     
242 H13R   73.359000   11.785000   18.585000 hL    7 MY      0.0075     
243 H13S   71.940000   12.299000   19.482000 hL    7 MY      0.0075     
244 C112   71.871000   10.231000   18.815000 cD    7 MY     -0.0281     
245 H12R   71.178000    9.870000   19.578000 hL    7 MY      0.0172     
246 H12S   72.578000    9.424000   18.604000 hL    7 MY      0.0172     
247 C111   71.063000   10.566000   17.542000 cD    7 MY     -0.0318     
248 H11R   71.736000   10.898000   16.748000 hL    7 MY      0.0127     
249 H11S   70.381000   11.389000   17.765000 hL    7 MY      0.0127     
250 C110   70.248000    9.346000   17.062000 cD    7 MY     -0.0210     
251 H10R   69.657000    8.960000   17.896000 hL    7 MY      0.0100     
252 H10S   70.930000    8.552000   16.748000 hL    7 MY      0.0100     
253 C19    69.295000    9.709000   15.900000 cD    7 MY     -0.0147     
254 H9R    69.867000   10.082000   15.047000 hL    7 MY      0.0102     
255 H9S    68.620000   10.502000   16.225000 hL    7 MY      0.0102     
256 C18    68.458000    8.485000   15.479000 cD    7 MY     -0.0265     
257 H8R    67.960000    8.078000   16.362000 hL    7 MY      0.0112     
258 H8S    69.123000    7.713000   15.091000 hL    7 MY      0.0112     
259 C17    67.396000    8.833000   14.413000 cD    7 MY     -0.0044     
260 H7R    67.887000    9.155000   13.492000 hL    7 MY      0.0068     
261 H7S    66.788000    9.669000   14.765000 hL    7 MY      0.0068     
262 C16    66.494000    7.608000   14.129000 cD    7 MY     -0.0278     
263 H6R    66.260000    7.108000   15.071000 hL    7 MY      0.0115     
264 H6S    67.042000    6.887000   13.518000 hL    7 MY      0.0115     
265 C15    65.152000    7.963000   13.447000 cD    7 MY     -0.0165     
266 H5R    64.552000    8.556000   14.137000 hL    7 MY      0.0106     
267 H5S    64.602000    7.038000   13.264000 hL    7 MY      0.0106     
268 C14    65.314000    8.740000   12.120000 cD    7 MY     -0.0270     
269 H4R    66.094000    8.276000   11.515000 hL    7 MY      0.0204     
270 H4S    65.638000    9.759000   12.335000 hL    7 MY      0.0204     
271 C13    64.012000    8.783000   11.285000 cD    7 MY     -0.0024     
272 H3R    63.755000    7.770000   10.968000 hL    7 MY      0.0189     
273 H3S    64.207000    9.367000   10.384000 hL    7 MY      0.0189     
274 C12    62.815000    9.404000   12.036000 cD    7 MY     -0.1642     
275 H2R    63.101000   10.354000   12.488000 hL    7 MY      0.0539     
276 H2S    62.489000    8.734000   12.830000 hL    7 MY      0.0539     
277 C11    61.661316    9.635328   11.092832 cC    8 PC      0.7836     
278 O12    61.703788    9.364547    9.936938 oC    8 PC     -0.5997     
279 O11    60.617294   10.168369   11.708845 oS    8 PC     -0.4550     
280 C1     59.458915   10.438516   10.929533 cA    8 PC      0.0159     
281 HR     59.050703    9.513641   10.550811 hE    8 PC      0.1198     
282 HS     59.721487   11.075597   10.097442 hE    8 PC      0.1198     
283 C2     58.460197   11.118694   11.837962 cA    8 PC      0.0914     
284 HX     58.337852   10.550110   12.744956 hE    8 PC      0.1426     
285 C3     57.109912   11.321599   11.169225 cA    8 PC      0.0105     
286 HA     57.215128   11.874383   10.245558 hE    8 PC      0.0971     
287 HB     56.465412   11.880249   11.836394 hE    8 PC      0.0971     
288 O31    56.571404   10.047370   10.921041 oT    8 PC     -0.4224     
289 P31    55.154693    9.897675   10.177430 pA    8 PC      1.1499     
290 O32    54.191407   10.222065   11.498230 oT    8 PC     -0.4442     
291 C31    52.829886   10.282201   11.259009 cA    8 PC      0.1831     
292 H1A    52.579995   10.071820   10.227271 hE    8 PC      0.0565     
293 H1B    52.461292   11.282457   11.467395 hE    8 PC      0.0565     
294 C32    52.062115    9.368375   12.204821 cA    8 PC     -0.0105     
295 H2A    51.001111    9.526453   12.058086 hX    8 PC      0.0802     
296 H2B    52.311948    9.615133   13.226619 hX    8 PC      0.0802     
297 N31    52.278356    7.874680   12.072949 nA    8 PC      0.0718     
298 C33    52.095334    7.415835   10.657716 cA    8 PC     -0.1588     
299 H3A    51.147497    7.788123   10.293928 hX    8 PC      0.1177     
300 H3B    52.086752    6.336010   10.656008 hX    8 PC      0.1177     
301 H3C    52.923326    7.772657   10.063726 hX    8 PC      0.1177     
302 C34    53.647071    7.459245   12.542686 cA    8 PC     -0.1588     
303 H4A    53.818772    7.886526   13.518731 hX    8 PC      0.1177     
304 H4B    54.379688    7.796421   11.831382 hX    8 PC      0.1177     
305 H4C    53.654037    6.380581   12.603795 hX    8 PC      0.1177     
306 C35    51.264512    7.210538   12.934622 cA    8 PC     -0.1588     
307 H5A    51.385224    7.550564   13.952411 hX    8 PC      0.1177     
308 H5B    51.407487    6.141290   12.890860 hX    8 PC      0.1177     
309 H5C    50.273662    7.457290   12.581400 hX    8 PC      0.1177     
310 O33    54.934108    8.464004    9.891299 oP    8 PC     -0.7807     
311 O34    54.939166   10.958265    9.192228 oP    8 PC     -0.7807     
312 O21    58.998714   12.401770   12.155245 oS    8 PC     -0.4195     
313 C21    58.781126   12.922125   13.355951 cC    8 PC      0.7704     
314 O22    58.122172   12.405258   14.198982 oC    8 PC     -0.5969     
315 H14T   62.126216    3.031093   21.513831 hL    9 MY      0.0255     
316 C114   61.308651    3.468599   21.887164 cD    9 MY     -0.1117     
317 H14R   61.698163    3.834368   22.840699 hL    9 MY      0.0255     
318 H14S   60.668314    2.610663   22.110619 hL    9 MY      0.0255     
319 C113   60.436383    4.562224   21.223581 cD    9 MY      0.0175     
320 H13R   59.565536    4.748237   21.858082 hL    9 MY      0.0075     
321 H13S   60.060307    4.188083   20.269437 hL    9 MY      0.0075     
322 C112   61.187955    5.896113   21.002455 cD    9 MY     -0.0281     
323 H12R   62.089923    5.721126   20.412055 hL    9 MY      0.0172     
324 H12S   61.499986    6.307345   21.966376 hL    9 MY      0.0172     
325 C111   60.307754    6.922052   20.255251 cD    9 MY     -0.0318     
326 H11R   59.412010    7.143243   20.840320 hL    9 MY      0.0127     
327 H11S   59.986024    6.485106   19.307754 hL    9 MY      0.0127     
328 C110   61.086181    8.225516   19.975866 cD    9 MY     -0.0210     
329 H10R   62.029576    7.980029   19.482334 hL    9 MY      0.0100     
330 H10S   61.328706    8.715813   20.921882 hL    9 MY      0.0100     
331 C19    60.287003    9.193315   19.073146 cD    9 MY     -0.0147     
332 H9R    59.345340    9.466405   19.555448 hL    9 MY      0.0102     
333 H9S    60.050673    8.693070   18.132932 hL    9 MY      0.0102     
334 C18    61.110566   10.460293   18.769014 cD    9 MY     -0.0265     
335 H8R    62.080429   10.161581   18.364689 hL    9 MY      0.0112     
336 H8S    61.293546   10.999911   19.698575 hL    9 MY      0.0112     
337 C17    60.407018   11.395241   17.760949 cD    9 MY     -0.0044     
338 H7R    59.477700   11.773514   18.192554 hL    9 MY      0.0068     
339 H7S    60.141337   10.829976   16.865207 hL    9 MY      0.0068     
340 C16    61.332255   12.576907   17.383474 cD    9 MY     -0.0278     
341 H6R    62.351277   12.207560   17.251949 hL    9 MY      0.0115     
342 H6S    61.361424   13.293342   18.207692 hL    9 MY      0.0115     
343 C15    60.927636   13.296141   16.075384 cD    9 MY     -0.0165     
344 H5R    61.054853   12.607255   15.240518 hL    9 MY      0.0106     
345 H5S    61.617769   14.125436   15.909253 hL    9 MY      0.0106     
346 C14    59.474572   13.824813   16.079002 cD    9 MY     -0.0270     
347 H4R    59.266392   14.321789   17.027367 hL    9 MY      0.0204     
348 H4S    58.783966   12.984486   15.998528 hL    9 MY      0.0204     
349 C13    59.195952   14.826992   14.933451 cD    9 MY     -0.0024     
350 H3R    59.802920   15.722336   15.083974 hL    9 MY      0.0189     
351 H3S    58.149011   15.128674   14.994977 hL    9 MY      0.0189     
352 C12    59.470579   14.252273   13.527489 cD    9 MY     -0.1642     
353 H2R    59.101320   14.956146   12.781292 hL    9 MY      0.0539     
354 H2S    60.544998   14.127196   13.402627 hL    9 MY      0.0539     
355 C12     6.166000   -0.064000    0.159000 cD   10 OL     -0.1434     
356 H2R     5.945000   -0.958000    0.733000 hL   10 OL      0.0429     
357 H2S     5.869000    0.773000    0.786000 hL   10 OL      0.0429     
358 C13     5.422000   -0.043000   -1.175000 cD   10 OL      0.0016     
359 H3R     5.748000    0.824000   -1.739000 hL   10 OL      0.0195     
360 H3S     5.713000   -0.909000   -1.761000 hL   10 OL      0.0195     
361 C14     3.897000   -0.002000   -1.029000 cD   10 OL     -0.0230     
362 H4R     3.618000    0.876000   -0.452000 hL   10 OL      0.0181     
363 H4S     3.467000    0.136000   -2.018000 hL   10 OL      0.0181     
364 C15     3.285000   -1.260000   -0.401000 cD   10 OL     -0.0167     
365 H5R     3.676000   -2.132000   -0.922000 hL   10 OL      0.0087     
366 H5S     3.604000   -1.356000    0.634000 hL   10 OL      0.0087     
367 C16     1.753000   -1.313000   -0.454000 cD   10 OL     -0.0238     
368 H6R     1.427000   -1.233000   -1.489000 hL   10 OL      0.0093     
369 H6S     1.431000   -2.294000   -0.110000 hL   10 OL      0.0093     
370 C17     1.047000   -0.244000    0.385000 cD   10 OL     -0.0175     
371 H7R     1.408000   -0.296000    1.411000 hL   10 OL      0.0196     
372 H7S     1.297000    0.749000    0.022000 hL   10 OL      0.0196     
373 C18    -0.480000   -0.400000    0.376000 cD   10 OL      0.0318     
374 H8R    -0.842000   -0.344000   -0.644000 hL   10 OL      0.0327     
375 H8S    -0.733000   -1.396000    0.737000 hL   10 OL      0.0327     
376 C19    -1.164000    0.618000    1.252000 cB   10 OL     -0.2442     
377 H9R    -0.917000    0.539000    2.300000 hB   10 OL      0.1315     
378 C110   -2.000000    1.581000    0.901000 cB   10 OL     -0.2393     
379 H10R   -2.380000    2.214000    1.690000 hB   10 OL      0.1269     
380 C111   -2.510000    1.937000   -0.472000 cD   10 OL      0.0291     
381 H11R   -2.194000    2.954000   -0.698000 hL   10 OL      0.0335     
382 H11S   -2.066000    1.305000   -1.233000 hL   10 OL      0.0335     
383 C112   -4.042000    1.873000   -0.585000 cD   10 OL     -0.0264     
384 H12R   -4.484000    2.503000    0.186000 hL   10 OL      0.0197     
385 H12S   -4.337000    2.308000   -1.538000 hL   10 OL      0.0197     
386 C113   -4.615000    0.459000   -0.479000 cD   10 OL     -0.0183     
387 H13R   -4.172000   -0.164000   -1.256000 hL   10 OL      0.0138     
388 H13S   -4.321000    0.017000    0.469000 hL   10 OL      0.0138     
389 C114   -6.139000    0.419000   -0.609000 cD   10 OL     -0.0248     
390 H14R   -6.575000    1.054000    0.159000 hL   10 OL      0.0086     
391 H14S   -6.433000    0.851000   -1.564000 hL   10 OL      0.0086     
392 C115   -6.708000   -0.999000   -0.500000 cD   10 OL     -0.0232     
393 H15R   -6.207000   -1.632000   -1.230000 hL   10 OL      0.0104     
394 H15S   -6.458000   -1.413000    0.473000 hL   10 OL      0.0104     
395 C116   -8.220000   -1.104000   -0.743000 cD   10 OL     -0.0125     
396 H16R   -8.435000   -0.751000   -1.750000 hL   10 OL      0.0137     
397 H16S   -8.499000   -2.156000   -0.726000 hL   10 OL      0.0137     
398 C117   -9.120000   -0.346000    0.242000 cD   10 OL      0.0087     
399 H17R   -8.919000    0.721000    0.187000 hL   10 OL      0.0100     
400 H17S  -10.151000   -0.470000   -0.082000 hL   10 OL      0.0100     
401 C118   -9.002000   -0.812000    1.694000 cD   10 OL     -0.1173     
402 H18R   -9.724000   -0.300000    2.323000 hL   10 OL      0.0266     
403 H18S   -8.017000   -0.616000    2.104000 hL   10 OL      0.0266     
404 H18T   -9.188000   -1.879000    1.778000 hL   10 OL      0.0266     
405 C11     7.656528   -0.022206   -0.066040 cC   11 PE      0.7918     
406 O12     8.149246    0.020757   -1.147481 oC   11 PE     -0.6008     
407 O11     8.329635   -0.039242    1.073092 oS   11 PE     -0.4503     
408 C1      9.748875   -0.007156    0.994070 cA   11 PE     -0.0103     
409 HR     10.063106    0.834160    0.399696 hE   11 PE      0.1180     
410 HS     10.102638   -0.915887    0.528250 hE   11 PE      0.1180     
411 C2     10.277137    0.120063    2.405387 cA   11 PE      0.0941     
412 HX      9.800649    0.949482    2.903738 hE   11 PE      0.1459     
413 C3     11.789643    0.291910    2.442896 cA   11 PE      0.0646     
414 HA     12.274803   -0.551253    1.970678 hE   11 PE      0.0837     
415 HB     12.123676    0.348770    3.468757 hE   11 PE      0.0837     
416 O31    12.108628    1.500891    1.788603 oT   11 PE     -0.4226     
417 P31    13.345121    1.603492    0.791858 pA   11 PE      1.1154     
418 O32    12.669534    0.839762   -0.511397 oT   11 PE     -0.4870     
419 C31    13.478927    0.444273   -1.575625 cA   11 PE      0.2072     
420 H1A    12.827879   -0.036423   -2.295099 hE   11 PE      0.0493     
421 H1B    14.232083   -0.264951   -1.257514 hE   11 PE      0.0493     
422 C32    14.180271    1.645017   -2.226124 cA   11 PE     -0.0048     
423 H2A    15.071551    1.917845   -1.681846 hX   11 PE      0.1012     
424 H2B    14.439504    1.435997   -3.254967 hX   11 PE      0.1012     
425 N31    13.283596    2.835330   -2.164590 nA   11 PE     -0.3627     
426 HN1A   12.351975    2.626429   -2.483495 hN   11 PE      0.3298     
427 HN1B   13.241069    3.102124   -1.107701 hN   11 PE      0.3298     
428 HN1C   13.642656    3.608364   -2.698129 hN   11 PE      0.3298     
429 O33    14.516186    0.843089    1.218901 oP   11 PE     -0.7664     
430 O34    13.443081    3.031719    0.351175 oP   11 PE     -0.7664     
431 O21     9.959014   -1.090623    3.085552 oS   11 PE     -0.4316     
432 C21     9.613286   -1.045402    4.369280 cC   11 PE      0.7789     
433 O22     9.590950   -0.050687    5.015943 oC   11 PE     -0.5886     
434 C12     9.253236   -2.408401    4.904688 cD   12 OL     -0.1434     
435 H2R    10.103689   -3.075415    4.807856 hL   12 OL      0.0429     
436 H2S     8.414696   -2.812570    4.343079 hL   12 OL      0.0429     
437 C13     8.862160   -2.318814    6.378651 cD   12 OL      0.0016     
438 H3R     7.959876   -1.722897    6.461279 hL   12 OL      0.0195     
439 H3S     8.602468   -3.308399    6.741027 hL   12 OL      0.0195     
440 C14     9.950089   -1.707725    7.268371 cD   12 OL     -0.0230     
441 H4R    10.191564   -0.712779    6.903095 hL   12 OL      0.0181     
442 H4S     9.535069   -1.572612    8.264146 hL   12 OL      0.0181     
443 C15    11.226252   -2.550494    7.380813 cD   12 OL     -0.0167     
444 H5R    10.945333   -3.572081    7.630113 hL   12 OL      0.0087     
445 H5S    11.729384   -2.599949    6.418205 hL   12 OL      0.0087     
446 C16    12.222693   -2.053044    8.435464 cD   12 OL     -0.0238     
447 H6R    11.730037   -2.015781    9.404898 hL   12 OL      0.0093     
448 H6S    13.019770   -2.788115    8.528846 hL   12 OL      0.0093     
449 C17    12.848123   -0.688820    8.130749 cD   12 OL     -0.0175     
450 H7R    13.301520   -0.714316    7.141061 hL   12 OL      0.0196     
451 H7S    12.081750    0.080505    8.097141 hL   12 OL      0.0196     
452 C18    13.907791   -0.281411    9.163835 cD   12 OL      0.0318     
453 H8R    13.457526   -0.250979   10.149185 hL   12 OL      0.0327     
454 H8S    14.675931   -1.052710    9.201313 hL   12 OL      0.0327     
455 C19    14.561608    1.033434    8.824335 cB   12 OL     -0.2442     
456 H9R    15.114599    1.027604    7.897123 hB   12 OL      0.1315     
457 C110   14.531327    2.169746    9.500607 cB   12 OL     -0.2393     
458 H10R   15.068143    3.007351    9.078876 hB   12 OL      0.1269     
459 C111   13.837593    2.477183   10.802982 cD   12 OL      0.0291     
460 H11R   13.108689    3.265144   10.621220 hL   12 OL      0.0335     
461 H11S   13.276503    1.621523   11.161738 hL   12 OL      0.0335     
462 C112   14.798714    2.955566   11.903566 cD   12 OL     -0.0264     
463 H12R   15.365772    3.810152   11.536371 hL   12 OL      0.0197     
464 H12S   14.209501    3.320545   12.742660 hL   12 OL      0.0197     
465 C113   15.763880    1.877315   12.398331 cD   12 OL     -0.0183     
466 H13R   15.189666    1.027915   12.768338 hL   12 OL      0.0138     
467 H13S   16.353034    1.505510   11.564567 hL   12 OL      0.0138     
468 C114   16.699790    2.372358   13.502904 cD   12 OL     -0.0248     
469 H14R   17.259089    3.228928   13.133286 hL   12 OL      0.0086     
470 H14S   16.109703    2.733917   14.343235 hL   12 OL      0.0086     
471 C115   17.665744    1.289427   13.993371 cD   12 OL     -0.0232     
472 H15R   17.087703    0.416851   14.291815 hL   12 OL      0.0104     
473 H15S   18.290110    0.963031   13.166172 hL   12 OL      0.0104     
474 C116   18.543406    1.703466   15.182698 cD   12 OL     -0.0125     
475 H16R   17.895941    1.955995   16.020494 hL   12 OL      0.0137     
476 H16S   19.123623    0.838758   15.499655 hL   12 OL      0.0137     
477 C117   19.506460    2.873408   14.940728 cD   12 OL      0.0087     
478 H17R   18.947352    3.774469   14.701139 hL   12 OL      0.0100     
479 H17S   20.020279    3.083909   15.876138 hL   12 OL      0.0100     
480 C118   20.551131    2.618301   13.853084 cD   12 OL     -0.1173     
481 H18R   21.253161    3.444401   13.791599 hL   12 OL      0.0266     
482 H18S   20.097751    2.503519   12.874303 hL   12 OL      0.0266     
483 H18T   21.119349    1.716137   14.061339 hL   12 OL      0.0266     
484 C1      4.697000   -1.469000   -0.739000 cA   13 CHL    -0.0317     
485 H11     4.428000   -1.214000   -1.762000 hA   13 CHL     0.0094     
486 H12     4.303000   -2.462000   -0.556000 hA   13 CHL     0.0094     
487 C2      6.224000   -1.517000   -0.642000 cA   13 CHL    -0.0881     
488 H21     6.547000   -1.874000    0.331000 hA   13 CHL     0.0446     
489 H22     6.617000   -2.214000   -1.376000 hA   13 CHL     0.0446     
490 C3      6.830000   -0.145000   -0.877000 cA   13 CHL     0.2936     
491 H31     6.590000    0.176000   -1.891000 hE   13 CHL     0.0296     
492 C4      6.246000    0.863000    0.111000 cA   13 CHL    -0.1622     
493 H41     6.601000    0.589000    1.102000 hA   13 CHL     0.0900     
494 H42     6.636000    1.856000   -0.095000 hA   13 CHL     0.0900     
495 C5      4.731000    0.895000    0.070000 cB   13 CHL    -0.1395     
496 C6      4.091000    2.041000   -0.088000 cB   13 CHL    -0.2082     
497 H61     4.668000    2.946000   -0.204000 hB   13 CHL     0.1228     
498 C7      2.599000    2.206000   -0.119000 cA   13 CHL    -0.0699     
499 H71     2.323000    3.070000    0.480000 hA   13 CHL     0.0479     
500 H72     2.290000    2.443000   -1.137000 hA   13 CHL     0.0479     
501 C8      1.853000    0.964000    0.375000 cA   13 CHL    -0.0114     
502 H81     1.922000    0.946000    1.460000 hA   13 CHL     0.0729     
503 C9      2.514000   -0.306000   -0.204000 cA   13 CHL     0.0196     
504 H91     2.518000   -0.165000   -1.285000 hA   13 CHL     0.0293     
505 C10     4.012000   -0.452000    0.214000 cA   13 CHL     0.0791     
506 C11     1.671000   -1.566000    0.076000 cA   13 CHL    -0.0664     
507 H111    2.085000   -2.410000   -0.467000 hA   13 CHL     0.0301     
508 H112    1.730000   -1.829000    1.125000 hA   13 CHL     0.0301     
509 C12     0.190000   -1.429000   -0.312000 cA   13 CHL    -0.0650     
510 H121    0.108000   -1.322000   -1.392000 hA   13 CHL     0.0104     
511 H122   -0.312000   -2.355000   -0.056000 hA   13 CHL     0.0104     
512 C13    -0.469000   -0.212000    0.358000 cA   13 CHL     0.0574     
513 C14     0.381000    1.015000   -0.041000 cA   13 CHL     0.0058     
514 H141    0.381000    1.020000   -1.132000 hA   13 CHL     0.0316     
515 C15    -0.462000    2.215000    0.391000 cA   13 CHL    -0.1020     
516 H151   -0.304000    2.443000    1.442000 hA   13 CHL     0.0265     
517 H152   -0.217000    3.115000   -0.163000 hA   13 CHL     0.0265     
518 C16    -1.913000    1.751000    0.131000 cA   13 CHL    -0.0921     
519 H161   -2.537000    1.930000    1.001000 hA   13 CHL     0.0333     
520 H162   -2.357000    2.309000   -0.684000 hA   13 CHL     0.0333     
521 C17    -1.859000    0.228000   -0.203000 cA   13 CHL     0.0324     
522 H171   -1.794000    0.127000   -1.286000 hA   13 CHL     0.0166     
523 C18    -0.546000   -0.407000    1.886000 cA   13 CHL    -0.1150     
524 H181   -1.062000    0.412000    2.374000 hA   13 CHL     0.0245     
525 H182    0.431000   -0.485000    2.344000 hA   13 CHL     0.0245     
526 H183   -1.086000   -1.316000    2.130000 hA   13 CHL     0.0245     
527 C19     4.156000   -0.937000    1.675000 cA   13 CHL    -0.1081     
528 H191    3.579000   -0.319000    2.354000 hA   13 CHL     0.0340     
529 H192    5.185000   -0.898000    2.008000 hA   13 CHL     0.0340     
530 H193    3.826000   -1.963000    1.788000 hA   13 CHL     0.0340     
531 C20    -3.141000   -0.519000    0.237000 cD   13 CHL     0.0443     
532 H201   -3.267000   -0.372000    1.309000 hL   13 CHL     0.0210     
533 C21    -3.080000   -2.029000   -0.029000 cD   13 CHL    -0.1546     
534 H211   -2.330000   -2.520000    0.577000 hL   13 CHL     0.0363     
535 H212   -2.851000   -2.232000   -1.072000 hL   13 CHL     0.0363     
536 H213   -4.025000   -2.508000    0.198000 hL   13 CHL     0.0363     
537 C22    -4.375000    0.093000   -0.461000 cD   13 CHL    -0.0390     
538 H221   -4.324000    1.175000   -0.403000 hL   13 CHL     0.0084     
539 H222   -4.337000   -0.153000   -1.522000 hL   13 CHL     0.0084     
540 C23    -5.732000   -0.335000    0.111000 cD   13 CHL    -0.0285     
541 H231   -5.862000   -1.406000    0.010000 hL   13 CHL     0.0157     
542 H232   -5.752000   -0.121000    1.179000 hL   13 CHL     0.0157     
543 C24    -6.898000    0.389000   -0.569000 cD   13 CHL    -0.1256     
544 H241   -6.718000    1.461000   -0.516000 hL   13 CHL     0.0401     
545 H242   -6.910000    0.137000   -1.629000 hL   13 CHL     0.0401     
546 C25    -8.286000    0.104000    0.028000 cD   13 CHL     0.2124     
547 H251   -8.244000    0.333000    1.092000 hL   13 CHL    -0.0025     
548 C26    -8.705000   -1.362000   -0.122000 cD   13 CHL    -0.2578     
549 H261   -8.034000   -2.035000    0.400000 hL   13 CHL     0.0580     
550 H262   -8.723000   -1.655000   -1.169000 hL   13 CHL     0.0580     
551 H263   -9.702000   -1.521000    0.280000 hL   13 CHL     0.0580     
552 C27    -9.336000    1.023000   -0.605000 cD   13 CHL    -0.2578     
553 H271   -9.079000    2.069000   -0.470000 hL   13 CHL     0.0580     
554 H272  -10.316000    0.862000   -0.166000 hL   13 CHL     0.0580     
555 H273   -9.420000    0.839000   -1.674000 hL   13 CHL     0.0580     
556 O1      8.224000   -0.262000   -0.734000 oH   13 CHL    -0.7030     
557 HO1     8.633000    0.570000   -0.924000 hO   13 CHL     0.4148     
@<TRIPOS>BOND
    1    74    73 1
    2    75    74 1
    3    76    74 1
    4    77    74 1
    5    78    77 1
    6    79    77 1
    7    80    77 1
    8    81    80 1
    9    82    80 1
   10    83    80 1
   11    84    83 1
   12    85    83 1
   13    86    83 1
   14    87    86 1
   15    88    86 1
   16    89    86 1
   17    90    89 1
   18    91    89 1
   19    92    89 1
   20    93    92 1
   21    94    92 1
   22    95    92 1
   23    96    95 1
   24    97    95 1
   25    98    95 1
   26    99    98 1
   27   100    98 1
   28   101    98 1
   29   102   101 1
   30   103   101 1
   31   104   101 1
   32   105   104 1
   33   106   104 1
   34    36    35 1
   35    37    35 1
   36    38    37 1
   37    39    38 1
   38    40    38 1
   39    41    38 1
   40    42    41 1
   41    43    41 1
   42    44    43 1
   43    45    43 1
   44    46    43 1
   45    47    46 1
   46    48    47 1
   47    49    48 1
   48    50    49 1
   49    51    49 1
   50    52    49 1
   51    53    52 1
   52    54    52 1
   53    55    52 1
   54    56    55 1
   55    57    56 1
   56    58    56 1
   57    59    56 1
   58    60    55 1
   59    61    60 1
   60    62    60 1
   61    63    60 1
   62    64    55 1
   63    65    64 1
   64    66    64 1
   65    67    64 1
   66    68    47 1
   67    69    47 1
   68    70    41 1
   69    71    70 1
   70    71   104 1
   71    72    71 1
   72     2     1 1
   73     3     2 1
   74     4     2 1
   75     5     2 1
   76     6     5 1
   77     7     5 1
   78     8     5 1
   79     9     8 1
   80    10     8 1
   81    11     8 1
   82    12    11 1
   83    13    11 1
   84    14    11 1
   85    15    14 1
   86    16    14 1
   87    17    14 1
   88    18    17 1
   89    19    17 1
   90    20    17 1
   91    21    20 1
   92    22    20 1
   93    23    20 1
   94    24    23 1
   95    25    23 1
   96    26    23 1
   97    27    26 1
   98    28    26 1
   99    29    26 1
  100    30    29 1
  101    31    29 1
  102    32    29 1
  103    32    35 1
  104    33    32 1
  105    34    32 1
  106   108   107 1
  107   109   107 1
  108   110   107 1
  109   111   107 1
  110   112   111 1
  111   113   111 1
  112   114   111 1
  113   115   114 1
  114   116   114 1
  115   117   114 1
  116   118   117 1
  117   119   117 1
  118   120   117 1
  119   121   120 1
  120   122   120 1
  121   123   120 1
  122   124   123 1
  123   125   123 1
  124   126   123 1
  125   127   126 1
  126   128   126 1
  127   129   126 1
  128   130   129 1
  129   131   129 1
  130   132   129 1
  131   133   132 1
  132   134   132 1
  133   135   132 1
  134   136   135 1
  135   137   135 1
  136   138   135 1
  137   139   138 1
  138   140   138 1
  139   141   138 1
  140   142   141 1
  141   143   141 1
  142   144   141 1
  143   145   144 1
  144   146   144 1
  145   147   144 1
  146   148   147 1
  147   149   147 1
  148   150   147 1
  149   150   153 1
  150   151   150 1
  151   152   150 1
  152   154   153 1
  153   155   153 1
  154   156   155 1
  155   157   156 1
  156   158   156 1
  157   159   156 1
  158   160   159 1
  159   161   159 1
  160   162   161 1
  161   163   161 1
  162   164   161 1
  163   165   164 1
  164   166   165 1
  165   167   166 1
  166   168   167 1
  167   169   167 1
  168   170   167 1
  169   171   170 1
  170   172   170 1
  171   173   170 1
  172   174   173 1
  173   175   174 1
  174   176   174 1
  175   177   174 1
  176   178   173 1
  177   179   178 1
  178   180   178 1
  179   181   178 1
  180   182   173 1
  181   183   182 1
  182   184   182 1
  183   185   182 1
  184   186   165 1
  185   187   165 1
  186   188   159 1
  187   189   188 1
  188   189   234 1
  189   190   189 1
  190   192   191 1
  191   193   191 1
  192   194   191 1
  193   195   191 1
  194   196   195 1
  195   197   195 1
  196   198   195 1
  197   199   198 1
  198   200   198 1
  199   201   198 1
  200   202   201 1
  201   203   201 1
  202   204   201 1
  203   205   204 1
  204   206   204 1
  205   207   204 1
  206   208   207 1
  207   209   207 1
  208   210   207 1
  209   211   210 1
  210   212   210 1
  211   213   210 1
  212   214   213 1
  213   215   213 1
  214   216   213 1
  215   217   216 1
  216   218   216 1
  217   219   216 1
  218   220   219 1
  219   221   219 1
  220   222   219 1
  221   223   222 1
  222   224   222 1
  223   225   222 1
  224   226   225 1
  225   227   225 1
  226   228   225 1
  227   229   228 1
  228   230   228 1
  229   231   228 1
  230   232   231 1
  231   233   231 1
  232   234   231 1
  233   235   234 1
  234   236   234 1
  235   238   237 1
  236   239   238 1
  237   240   238 1
  238   241   238 1
  239   242   241 1
  240   243   241 1
  241   244   241 1
  242   245   244 1
  243   246   244 1
  244   247   244 1
  245   248   247 1
  246   249   247 1
  247   250   247 1
  248   251   250 1
  249   252   250 1
  250   253   250 1
  251   254   253 1
  252   255   253 1
  253   256   253 1
  254   257   256 1
  255   258   256 1
  256   259   256 1
  257   260   259 1
  258   261   259 1
  259   262   259 1
  260   263   262 1
  261   264   262 1
  262   265   262 1
  263   266   265 1
  264   267   265 1
  265   268   265 1
  266   269   268 1
  267   270   268 1
  268   271   268 1
  269   272   271 1
  270   273   271 1
  271   274   271 1
  272   274   277 1
  273   275   274 1
  274   276   274 1
  275   278   277 1
  276   279   277 1
  277   280   279 1
  278   281   280 1
  279   282   280 1
  280   283   280 1
  281   284   283 1
  282   285   283 1
  283   286   285 1
  284   287   285 1
  285   288   285 1
  286   289   288 1
  287   290   289 1
  288   291   290 1
  289   292   291 1
  290   293   291 1
  291   294   291 1
  292   295   294 1
  293   296   294 1
  294   297   294 1
  295   298   297 1
  296   299   298 1
  297   300   298 1
  298   301   298 1
  299   302   297 1
  300   303   302 1
  301   304   302 1
  302   305   302 1
  303   306   297 1
  304   307   306 1
  305   308   306 1
  306   309   306 1
  307   310   289 1
  308   311   289 1
  309   312   283 1
  310   313   312 1
  311   313   352 1
  312   314   313 1
  313   316   315 1
  314   317   316 1
  315   318   316 1
  316   319   316 1
  317   320   319 1
  318   321   319 1
  319   322   319 1
  320   323   322 1
  321   324   322 1
  322   325   322 1
  323   326   325 1
  324   327   325 1
  325   328   325 1
  326   329   328 1
  327   330   328 1
  328   331   328 1
  329   332   331 1
  330   333   331 1
  331   334   331 1
  332   335   334 1
  333   336   334 1
  334   337   334 1
  335   338   337 1
  336   339   337 1
  337   340   337 1
  338   341   340 1
  339   342   340 1
  340   343   340 1
  341   344   343 1
  342   345   343 1
  343   346   343 1
  344   347   346 1
  345   348   346 1
  346   349   346 1
  347   350   349 1
  348   351   349 1
  349   352   349 1
  350   353   352 1
  351   354   352 1
  352   355   405 1
  353   356   355 1
  354   357   355 1
  355   358   355 1
  356   359   358 1
  357   360   358 1
  358   361   358 1
  359   362   361 1
  360   363   361 1
  361   364   361 1
  362   365   364 1
  363   366   364 1
  364   367   364 1
  365   368   367 1
  366   369   367 1
  367   370   367 1
  368   371   370 1
  369   372   370 1
  370   373   370 1
  371   374   373 1
  372   375   373 1
  373   376   373 1
  374   377   376 1
  375   378   376 1
  376   379   378 1
  377   380   378 1
  378   381   380 1
  379   382   380 1
  380   383   380 1
  381   384   383 1
  382   385   383 1
  383   386   383 1
  384   387   386 1
  385   388   386 1
  386   389   386 1
  387   390   389 1
  388   391   389 1
  389   392   389 1
  390   393   392 1
  391   394   392 1
  392   395   392 1
  393   396   395 1
  394   397   395 1
  395   398   395 1
  396   399   398 1
  397   400   398 1
  398   401   398 1
  399   402   401 1
  400   403   401 1
  401   404   401 1
  402   406   405 1
  403   407   405 1
  404   408   407 1
  405   409   408 1
  406   410   408 1
  407   411   408 1
  408   412   411 1
  409   413   411 1
  410   414   413 1
  411   415   413 1
  412   416   413 1
  413   417   416 1
  414   418   417 1
  415   419   418 1
  416   420   419 1
  417   421   419 1
  418   422   419 1
  419   423   422 1
  420   424   422 1
  421   425   422 1
  422   426   425 1
  423   427   425 1
  424   428   425 1
  425   429   417 1
  426   430   417 1
  427   431   411 1
  428   432   431 1
  429   432   434 1
  430   433   432 1
  431   435   434 1
  432   436   434 1
  433   437   434 1
  434   438   437 1
  435   439   437 1
  436   440   437 1
  437   441   440 1
  438   442   440 1
  439   443   440 1
  440   444   443 1
  441   445   443 1
  442   446   443 1
  443   447   446 1
  444   448   446 1
  445   449   446 1
  446   450   449 1
  447   451   449 1
  448   452   449 1
  449   453   452 1
  450   454   452 1
  451   455   452 1
  452   456   455 1
  453   457   455 1
  454   458   457 1
  455   459   457 1
  456   460   459 1
  457   461   459 1
  458   462   459 1
  459   463   462 1
  460   464   462 1
  461   465   462 1
  462   466   465 1
  463   467   465 1
  464   468   465 1
  465   469   468 1
  466   470   468 1
  467   471   468 1
  468   472   471 1
  469   473   471 1
  470   474   471 1
  471   475   474 1
  472   476   474 1
  473   477   474 1
  474   478   477 1
  475   479   477 1
  476   480   477 1
  477   481   480 1
  478   482   480 1
  479   483   480 1
  480   556   557 1
  481   552   553 1
  482   552   554 1
  483   552   555 1
  484   548   549 1
  485   548   550 1
  486   548   551 1
  487   546   547 1
  488   546   548 1
  489   546   552 1
  490   543   544 1
  491   543   545 1
  492   543   546 1
  493   540   541 1
  494   540   542 1
  495   540   543 1
  496   537   538 1
  497   537   539 1
  498   537   540 1
  499   533   534 1
  500   533   535 1
  501   533   536 1
  502   531   532 1
  503   531   533 1
  504   531   537 1
  505   527   528 1
  506   527   529 1
  507   527   530 1
  508   523   524 1
  509   523   525 1
  510   523   526 1
  511   521   522 1
  512   521   531 1
  513   518   519 1
  514   518   520 1
  515   518   521 1
  516   515   516 1
  517   515   517 1
  518   515   518 1
  519   513   514 1
  520   513   515 1
  521   512   513 1
  522   512   521 1
  523   512   523 1
  524   509   510 1
  525   509   511 1
  526   509   512 1
  527   506   507 1
  528   506   508 1
  529   506   509 1
  530   505   527 1
  531   503   504 1
  532   503   505 1
  533   503   506 1
  534   501   502 1
  535   501   503 1
  536   501   513 1
  537   498   499 1
  538   498   500 1
  539   498   501 1
  540   496   497 1
  541   496   498 1
  542   495   496 1
  543   495   505 1
  544   492   493 1
  545   492   494 1
  546   492   495 1
  547   490   491 1
  548   490   492 1
  549   490   556 1
  550   487   488 1
  551   487   489 1
  552   487   490 1
  553   484   485 1
  554   484   486 1
  555   484   487 1
  556   484   505 1
@<TRIPOS>SUBSTRUCTURE
      1   LA              1 ****               0 ****  **** 
      2   PC             35 ****               0 ****  **** 
      3   LA             73 ****               0 ****  **** 
      4   PA            107 ****               0 ****  **** 
      5   PC            153 ****               0 ****  **** 
      6   PA            191 ****               0 ****  **** 
      7   MY            237 ****               0 ****  **** 
      8   PC            277 ****               0 ****  **** 
      9   MY            315 ****               0 ****  **** 
     10   OL            355 ****               0 ****  **** 
     11   PE            405 ****               0 ****  **** 
     12   OL            434 ****               0 ****  **** 
     13  CHL            484 ****               0 ****  **** 
