@<TRIPOS>MOLECULE
U5
  506   537    17     0     1 
SMALL
USER_CHARGES
@<TRIPOS>ATOM
  1 HO5'    1.866026    1.500000   -0.000001 HO    1 U5      0.4295 ****
  2 O5'     1.958076    1.721055    0.929655 OH    1 U5     -0.6223 ****
  3 C5'     0.788438    2.110876    1.673689 CI    1 U5      0.0558 ****
  4 H5'     0.059609    1.300555    1.656698 H1    1 U5      0.0679 ****
  5 H5''    0.350939    3.001862    1.223312 H1    1 U5      0.0679 ****
  6 C4'     1.165852    2.413322    3.114690 CT    1 U5      0.1065 ****
  7 H4'     0.391898    3.029893    3.571785 H1    1 U5      0.1174 ****
  8 O4'     1.142228    1.169997    3.879664 OS    1 U5     -0.3548 ****
  9 C1'     2.468203    0.737932    4.147079 CT    1 U5      0.0674 ****
 10 H1'     2.623230    0.684850    5.224692 H2    1 U5      0.1824 ****
 11 N1      2.632954   -0.717027    3.703400 N*    1 U5      0.0418 ****
 12 C6      2.875704   -1.078951    2.404560 CS    1 U5     -0.1126 ****
 13 H6      2.959033   -0.321303    1.639428 H4    1 U5      0.2188 ****
 14 C5      3.067013   -2.361006    2.064952 CS    1 U5     -0.3635 ****
 15 H5      3.258726   -2.626647    1.025346 HA    1 U5      0.1811 ****
 16 C4      3.022940   -3.401293    3.059668 C     1 U5      0.5952 ****
 17 O4      3.186163   -4.600921    2.842522 O     1 U5     -0.5761 ****
 18 N3      2.773361   -2.946917    4.338595 NA    1 U5     -0.3549 ****
 19 H3      2.730570   -3.698396    5.126977 H     1 U5      0.3154 ****
 20 C2      2.572586   -1.635486    4.718382 C     1 U5      0.4687 ****
 21 O2      2.357491   -1.330167    5.879810 O     1 U5     -0.5477 ****
 22 C3'     2.575663    2.966923    3.331156 CT    1 U5      0.2022 ****
 23 H3'     2.881940    3.535798    2.453275 H1    1 U5      0.0615 ****
 24 C2'     3.424930    1.698842    3.438933 CT    1 U5      0.0670 ****
 25 H2'     4.177812    1.697074    2.650729 H1    1 U5      0.0972 ****
 26 O2'     4.070875    1.663901    4.714250 OH    1 U5     -0.6139 ****
 27 HO2'    4.591407    0.857795    4.743237 HO    1 U5      0.4186 ****
 28 O3'     2.785632    3.721367    4.515693 OS    1 U5     -0.5246 ****
 29 P       4.232664    4.348687    4.839217 P     2 U       1.1662 ****
 30 OP1     5.208669    3.239685    4.928261 O2    2 U      -0.7760 ****
 31 OP2     4.145812    5.073250    6.126799 O2    2 U      -0.7760 ****
 32 O5'     4.483164    5.312494    3.586890 OS    2 U      -0.4989 ****
 33 C5'     4.118738    4.855957    2.270696 CI    2 U       0.0558 ****
 34 H5'     3.050003    4.643604    2.242187 H1    2 U       0.0679 ****
 35 H5''    4.675249    3.949373    2.032994 H1    2 U       0.0679 ****
 36 C4'     4.443224    5.925890    1.240961 CT    2 U       0.1065 ****
 37 H4'     4.506782    5.471801    0.252091 H1    2 U       0.1174 ****
 38 O4'     3.315703    6.848726    1.147863 OS    2 U      -0.3548 ****
 39 C1'     3.635948    8.074537    1.789135 CT    2 U       0.0674 ****
 40 H1'     3.575932    8.889229    1.067488 H2    2 U       0.1824 ****
 41 N1      2.541151    8.426951    2.798156 N*    2 U       0.0418 ****
 42 C6      2.484770    7.889825    4.057211 CS    2 U      -0.1126 ****
 43 H6      3.235878    7.182616    4.376727 H4    2 U       0.2188 ****
 44 C5      1.540027    8.264524    4.930515 CS    2 U      -0.3635 ****
 45 H5      1.513734    7.824170    5.927258 HA    2 U       0.1811 ****
 46 C4      0.551354    9.247439    4.569956 C     2 U       0.5952 ****
 47 O4     -0.350240    9.651826    5.302417 O     2 U      -0.5761 ****
 48 N3      0.683627    9.733814    3.285299 NA    2 U      -0.3549 ****
 49 H3     -0.042775   10.481166    2.966072 H     2 U       0.3154 ****
 50 C2      1.644352    9.367845    2.364715 C     2 U       0.4687 ****
 51 O2      1.680423    9.856092    1.247257 O     2 U      -0.5477 ****
 52 C3'     5.641494    6.820163    1.565501 CT    2 U       0.2022 ****
 53 H3'     6.363188    6.259912    2.159956 H1    2 U       0.0615 ****
 54 C2'     5.018982    7.922344    2.424905 CT    2 U       0.0670 ****
 55 H2'     5.491186    7.928127    3.407295 H1    2 U       0.0972 ****
 56 O2'     5.218270    9.189838    1.793523 OH    2 U      -0.6139 ****
 57 HO2'    4.815823    9.852052    2.360187 HO    2 U       0.4186 ****
 58 O3'     6.279938    7.449183    0.464082 OS    2 U      -0.5246 ****
 59 P       7.550300    8.410673    0.696069 P     3 U3      1.1662 ****
 60 OP1     7.130885    9.529326    1.569628 O2    3 U3     -0.7760 ****
 61 OP2     7.995790    8.915362   -0.621971 O2    3 U3     -0.7760 ****
 62 O5'     8.608336    7.430176    1.388301 OS    3 U3     -0.4989 ****
 63 C5'     8.149875    6.504622    2.391676 CI    3 U3      0.0558 ****
 64 H5'     7.403440    5.838764    1.958585 H1    3 U3      0.0679 ****
 65 H5''    7.706455    7.056595    3.220413 H1    3 U3      0.0679 ****
 66 C4'     9.316350    5.678590    2.908792 CT    3 U3      0.1065 ****
 67 H4'     9.058601    5.251908    3.878126 H1    3 U3      0.1174 ****
 68 O4'     9.498746    4.521848    2.036854 OS    3 U3     -0.3548 ****
 69 C1'    10.641806    4.707392    1.215035 CT    3 U3      0.0674 ****
 70 H1'    11.360391    3.910322    1.405865 H2    3 U3      0.1824 ****
 71 N1     10.261750    4.484862   -0.250208 N*    3 U3      0.0418 ****
 72 C6      9.665428    5.447234   -1.021661 CS    3 U3     -0.1126 ****
 73 H6      9.442746    6.416166   -0.599779 H4    3 U3      0.2188 ****
 74 C5      9.396568    5.231386   -2.316545 CS    3 U3     -0.3635 ****
 75 H5      8.921553    6.011148   -2.911887 HA    3 U3      0.1811 ****
 76 C4      9.727952    3.975676   -2.938619 C     3 U3      0.5952 ****
 77 O4      9.519911    3.688107   -4.116296 O     3 U3     -0.5761 ****
 78 N3     10.324452    3.066641   -2.088770 NA    3 U3     -0.3549 ****
 79 H3     10.594044    2.100151   -2.514583 H     3 U3      0.3154 ****
 80 C2     10.613489    3.259875   -0.753286 C     3 U3      0.4687 ****
 81 O2     11.144981    2.392108   -0.080311 O     3 U3     -0.5477 ****
 82 C3'    10.678247    6.375822    2.906395 CT    3 U3      0.2022 ****
 83 H3'    10.538367    7.447954    3.044469 H1    3 U3      0.0615 ****
 84 C2'    11.194245    6.106893    1.491360 CT    3 U3      0.0670 ****
 85 H2'    11.361703    7.054263    0.978965 H1    3 U3      0.0972 ****
 86 O2'    12.423691    5.379972    1.561708 OH    3 U3     -0.6139 ****
 87 HO2'   12.713956    5.231370    0.658788 HO    3 U3      0.4186 ****
 88 O3'    11.648181    5.875725    3.814983 OH    3 U3     -0.6541 ****
 89 HO3'   12.494103    6.329170    3.794890 HO    3 U3      0.4376 ****
 90 HO5'    1.866026    1.500000   -0.000001 HO    4 A5      0.4295 ****
 91 O5'     1.958076    1.721055    0.929655 OH    4 A5     -0.6223 ****
 92 C5'     0.788438    2.110876    1.673689 CI    4 A5      0.0558 ****
 93 H5'     0.059609    1.300555    1.656698 H1    4 A5      0.0679 ****
 94 H5''    0.350939    3.001862    1.223312 H1    4 A5      0.0679 ****
 95 C4'     1.165852    2.413326    3.114689 CT    4 A5      0.1065 ****
 96 H4'     0.391898    3.029897    3.571783 H1    4 A5      0.1174 ****
 97 O4'     1.142231    1.170002    3.879666 OS    4 A5     -0.3548 ****
 98 C1'     2.468206    0.737940    4.147081 CT    4 A5      0.0394 ****
 99 H1'     2.623235    0.684861    5.224694 H2    4 A5      0.2007 ****
100 N9      2.631883   -0.707510    3.706304 N*    4 A5     -0.0251 ****
101 C8      2.874744   -1.252950    2.473254 C5    4 A5      0.2006 ****
102 H8      2.981762   -0.611824    1.610754 H5    4 A5      0.1553 ****
103 N7      3.015090   -2.545282    2.486686 NB    4 A5     -0.6073 ****
104 C5      2.854438   -2.887092    3.824392 CB    4 A5      0.0515 ****
105 C6      2.890064   -4.114821    4.496265 CA    4 A5      0.7009 ****
106 N6      3.109811   -5.286601    3.884511 N2    4 A5     -0.9019 ****
107 H61     3.124377   -6.141797    4.421657 H     4 A5      0.4115 ****
108 H62     3.260876   -5.314613    2.886265 H     4 A5      0.4115 ****
109 N1      2.691907   -4.099278    5.821441 NC    4 A5     -0.7615 ****
110 C2      2.474289   -2.933294    6.423125 CQ    4 A5      0.5875 ****
111 H2      2.312233   -2.898286    7.490323 H5    4 A5      0.0473 ****
112 N3      2.418510   -1.722694    5.899928 NC    4 A5     -0.6997 ****
113 C4      2.621154   -1.767152    4.565964 CB    4 A5      0.3053 ****
114 C3'     2.575663    2.966930    3.331153 CT    4 A5      0.2022 ****
115 H3'     2.881938    3.535803    2.453270 H1    4 A5      0.0615 ****
116 C2'     3.424932    1.698850    3.438932 CT    4 A5      0.0670 ****
117 H2'     4.177814    1.697080    2.650727 H1    4 A5      0.0972 ****
118 O2'     4.070877    1.663912    4.714249 OH    4 A5     -0.6139 ****
119 HO2'    4.591411    0.857807    4.743237 HO    4 A5      0.4186 ****
120 O3'     2.785632    3.721376    4.515688 OS    4 A5     -0.5246 ****
121 P       4.232663    4.348699    4.839210 P     5 A       1.1662 ****
122 OP1     5.208670    3.239698    4.928254 O2    5 A      -0.7760 ****
123 OP2     4.145812    5.073263    6.126790 O2    5 A      -0.7760 ****
124 O5'     4.483160    5.312504    3.586880 OS    5 A      -0.4989 ****
125 C5'     4.118734    4.855964    2.270687 CI    5 A       0.0558 ****
126 H5'     3.050000    4.643610    2.242180 H1    5 A       0.0679 ****
127 H5''    4.675246    3.949381    2.032986 H1    5 A       0.0679 ****
128 C4'     4.443217    5.925896    1.240951 CT    5 A       0.1065 ****
129 H4'     4.506774    5.471805    0.252082 H1    5 A       0.1174 ****
130 O4'     3.315694    6.848730    1.147852 OS    5 A      -0.3548 ****
131 C1'     3.635938    8.074543    1.789122 CT    5 A       0.0394 ****
132 H1'     3.575920    8.889233    1.067474 H2    5 A       0.2007 ****
133 N9      2.548297    8.424654    2.791549 N*    5 A      -0.0251 ****
134 C8      2.331709    7.995984    4.074604 C5    5 A       0.2006 ****
135 H8      3.006379    7.284492    4.527376 H5    5 A       0.1553 ****
136 N7      1.318967    8.566065    4.657151 NB    5 A      -0.6073 ****
137 C5      0.824013    9.437685    3.694136 CB    5 A       0.0515 ****
138 C6     -0.250293   10.335384    3.695684 CA    5 A       0.7009 ****
139 N6     -1.062360   10.515178    4.746313 N2    5 A      -0.9019 ****
140 H61    -1.822457   11.177843    4.689497 H     5 A       0.4115 ****
141 H62    -0.914346    9.988028    5.595020 H     5 A       0.4115 ****
142 N1     -0.463707   11.044603    2.578964 NC    5 A      -0.7615 ****
143 C2      0.345542   10.861892    1.539429 CQ    5 A       0.5875 ****
144 H2      0.191261   11.423250    0.629773 H5    5 A       0.0473 ****
145 N3      1.381149   10.051981    1.421264 NC    5 A      -0.6997 ****
146 C4      1.573450    9.350607    2.558628 CB    5 A       0.3053 ****
147 C3'     5.641486    6.820171    1.565488 CT    5 A       0.2022 ****
148 H3'     6.363181    6.259923    2.159943 H1    5 A       0.0615 ****
149 C2'     5.018973    7.922353    2.424891 CT    5 A       0.0670 ****
150 H2'     5.491178    7.928138    3.407280 H1    5 A       0.0972 ****
151 O2'     5.218258    9.189846    1.793506 OH    5 A      -0.6139 ****
152 HO2'    4.815811    9.852061    2.360170 HO    5 A       0.4186 ****
153 O3'     6.279928    7.449190    0.464067 OS    5 A      -0.5246 ****
154 P       7.550289    8.410683    0.696051 P     6 A3      1.1662 ****
155 OP1     7.130873    9.529336    1.569609 O2    6 A3     -0.7760 ****
156 OP2     7.995776    8.915371   -0.621990 O2    6 A3     -0.7760 ****
157 O5'     8.608327    7.430188    1.388283 OS    6 A3     -0.4989 ****
158 C5'     8.149869    6.504636    2.391661 CI    6 A3      0.0558 ****
159 H5'     7.403434    5.838776    1.958571 H1    6 A3      0.0679 ****
160 H5''    7.706448    7.056610    3.220397 H1    6 A3      0.0679 ****
161 C4'     9.316345    5.678607    2.908777 CT    6 A3      0.1065 ****
162 H4'     9.058597    5.251926    3.878111 H1    6 A3      0.1174 ****
163 O4'     9.498742    4.521863    2.036840 OS    6 A3     -0.3548 ****
164 C1'    10.641801    4.707407    1.215020 CT    6 A3      0.0394 ****
165 H1'    11.360387    3.910339    1.405850 H2    6 A3      0.2007 ****
166 N9     10.264228    4.486329   -0.240645 N*    6 A3     -0.0251 ****
167 C8      9.671370    5.316374   -1.155220 C5    6 A3      0.2006 ****
168 H8      9.392144    6.320435   -0.871857 H5    6 A3      0.1553 ****
169 N7      9.556947    4.797631   -2.341732 NB    6 A3     -0.6073 ****
170 C5     10.113200    3.530628   -2.209878 CB    6 A3      0.0515 ****
171 C6     10.294255    2.479662   -3.116900 CA    6 A3      0.7009 ****
172 N6      9.916213    2.537675   -4.401159 N2    6 A3     -0.9019 ****
173 H61    10.072725    1.747053   -5.009864 H     6 A3      0.4115 ****
174 H62     9.474759    3.372021   -4.760440 H     6 A3      0.4115 ****
175 N1     10.878272    1.363564   -2.659898 NC    6 A3     -0.7615 ****
176 C2     11.251345    1.311803   -1.384345 CQ    6 A3      0.5875 ****
177 H2     11.723763    0.421812   -0.995582 H5    6 A3      0.0473 ****
178 N3     11.134056    2.230142   -0.443443 NC    6 A3     -0.6997 ****
179 C4     10.543483    3.342329   -0.930028 CB    6 A3      0.3053 ****
180 C3'    10.678242    6.375840    2.906377 CT    6 A3      0.2022 ****
181 H3'    10.538360    7.447973    3.044450 H1    6 A3      0.0615 ****
182 C2'    11.194238    6.106910    1.491342 CT    6 A3      0.0670 ****
183 H2'    11.361694    7.054279    0.978945 H1    6 A3      0.0972 ****
184 O2'    12.423685    5.379991    1.561690 OH    6 A3     -0.6139 ****
185 HO2'   12.713949    5.231388    0.658770 HO    6 A3      0.4186 ****
186 O3'    11.648177    5.875747    3.814965 OH    6 A3     -0.6541 ****
187 HO3'   12.494098    6.329193    3.794871 HO    6 A3      0.4376 ****
188 HO5'    1.866026    1.500000   -0.000001 HO    7 G5      0.4295 ****
189 O5'     1.958076    1.721055    0.929655 OH    7 G5     -0.6223 ****
190 C5'     0.788438    2.110876    1.673689 CI    7 G5      0.0558 ****
191 H5'     0.059609    1.300555    1.656698 H1    7 G5      0.0679 ****
192 H5''    0.350939    3.001862    1.223312 H1    7 G5      0.0679 ****
193 C4'     1.165852    2.413322    3.114690 CT    7 G5      0.1065 ****
194 H4'     0.391898    3.029893    3.571785 H1    7 G5      0.1174 ****
195 O4'     1.142228    1.169997    3.879664 OS    7 G5     -0.3548 ****
196 C1'     2.468203    0.737932    4.147079 CT    7 G5      0.0191 ****
197 H1'     2.623230    0.684850    5.224692 H2    7 G5      0.2006 ****
198 N9      2.590683   -0.679099    3.703095 N*    7 G5      0.0492 ****
199 C8      2.813129   -1.180191    2.436673 CP    7 G5      0.1374 ****
200 H8      2.923923   -0.505431    1.600717 H5    7 G5      0.1640 ****
201 N7      2.866570   -2.487996    2.382915 NB    7 G5     -0.5709 ****
202 C5      2.666619   -2.884785    3.699987 CB    7 G5      0.1744 ****
203 C6      2.618174   -4.183247    4.272741 C     7 G5      0.4770 ****
204 O6      2.745116   -5.274679    3.719964 O     7 G5     -0.5597 ****
205 N1      2.392360   -4.124070    5.653142 NA    7 G5     -0.4787 ****
206 H1      2.340247   -4.991530    6.147911 H     7 G5      0.3424 ****
207 C2      2.235990   -2.964893    6.385439 CA    7 G5      0.7657 ****
208 N2      2.027970   -3.123384    7.699672 N2    7 G5     -0.9672 ****
209 H21     1.962798   -3.996108    8.203861 H     7 G5      0.4364 ****
210 H22     1.903763   -2.280230    8.241672 H     7 G5      0.4364 ****
211 N3      2.283792   -1.749405    5.847662 NC    7 G5     -0.6323 ****
212 C4      2.502700   -1.789344    4.505990 CB    7 G5      0.1222 ****
213 C3'     2.575663    2.966923    3.331156 CT    7 G5      0.2022 ****
214 H3'     2.881940    3.535798    2.453275 H1    7 G5      0.0615 ****
215 C2'     3.424930    1.698842    3.438933 CT    7 G5      0.0670 ****
216 H2'     4.177812    1.697074    2.650729 H1    7 G5      0.0972 ****
217 O2'     4.070875    1.663901    4.714250 OH    7 G5     -0.6139 ****
218 HO2'    4.591407    0.857795    4.743237 HO    7 G5      0.4186 ****
219 O3'     2.785632    3.721367    4.515693 OS    7 G5     -0.5246 ****
220 P       4.232664    4.348687    4.839217 P     8 G       1.1662 ****
221 OP1     5.208669    3.239685    4.928261 O2    8 G      -0.7760 ****
222 OP2     4.145812    5.073250    6.126799 O2    8 G      -0.7760 ****
223 O5'     4.483164    5.312494    3.586890 OS    8 G      -0.4989 ****
224 C5'     4.118738    4.855957    2.270696 CI    8 G       0.0558 ****
225 H5'     3.050003    4.643604    2.242187 H1    8 G       0.0679 ****
226 H5''    4.675249    3.949373    2.032994 H1    8 G       0.0679 ****
227 C4'     4.443224    5.925890    1.240961 CT    8 G       0.1065 ****
228 H4'     4.506782    5.471801    0.252091 H1    8 G       0.1174 ****
229 O4'     3.315703    6.848726    1.147863 OS    8 G      -0.3548 ****
230 C1'     3.635948    8.074537    1.789135 CT    8 G       0.0191 ****
231 H1'     3.575932    8.889229    1.067488 H2    8 G       0.2006 ****
232 N9      2.550499    8.384423    2.761694 N*    8 G       0.0492 ****
233 C8      2.363330    7.904534    4.041957 CP    8 G       0.1374 ****
234 H8      3.065870    7.200466    4.462823 H5    8 G       0.1640 ****
235 N7      1.297309    8.378257    4.638014 NB    8 G      -0.5709 ****
236 C5      0.737042    9.229870    3.693049 CB    8 G       0.1744 ****
237 C6     -0.432577   10.032618    3.756193 C     8 G       0.4770 ****
238 O6     -1.232010   10.158319    4.682479 O     8 G      -0.5597 ****
239 N1     -0.629096   10.742736    2.565768 NA    8 G      -0.4787 ****
240 H1     -1.431234   11.337491    2.512483 H     8 G       0.3424 ****
241 C2      0.195230   10.687673    1.460392 CA    8 G       0.7657 ****
242 N2     -0.168754   11.446002    0.417295 N2    8 G      -0.9672 ****
243 H21    -0.983145   12.039845    0.352349 H     8 G       0.4364 ****
244 H22     0.424401   11.404848   -0.399146 H     8 G       0.4364 ****
245 N3      1.291565    9.936844    1.403761 NC    8 G      -0.6323 ****
246 C4      1.497045    9.239920    2.553402 CB    8 G       0.1222 ****
247 C3'     5.641494    6.820163    1.565501 CT    8 G       0.2022 ****
248 H3'     6.363188    6.259912    2.159956 H1    8 G       0.0615 ****
249 C2'     5.018982    7.922344    2.424905 CT    8 G       0.0670 ****
250 H2'     5.491186    7.928127    3.407295 H1    8 G       0.0972 ****
251 O2'     5.218270    9.189838    1.793523 OH    8 G      -0.6139 ****
252 HO2'    4.815823    9.852052    2.360187 HO    8 G       0.4186 ****
253 O3'     6.279938    7.449183    0.464082 OS    8 G      -0.5246 ****
254 P       7.550300    8.410673    0.696069 P     9 G3      1.1662 ****
255 OP1     7.130885    9.529326    1.569628 O2    9 G3     -0.7760 ****
256 OP2     7.995790    8.915362   -0.621971 O2    9 G3     -0.7760 ****
257 O5'     8.608336    7.430176    1.388301 OS    9 G3     -0.4989 ****
258 C5'     8.149875    6.504622    2.391676 CI    9 G3      0.0558 ****
259 H5'     7.403440    5.838764    1.958585 H1    9 G3      0.0679 ****
260 H5''    7.706455    7.056595    3.220413 H1    9 G3      0.0679 ****
261 C4'     9.316350    5.678590    2.908792 CT    9 G3      0.1065 ****
262 H4'     9.058601    5.251908    3.878126 H1    9 G3      0.1174 ****
263 O4'     9.498746    4.521848    2.036854 OS    9 G3     -0.3548 ****
264 C1'    10.641806    4.707392    1.215035 CT    9 G3      0.0191 ****
265 H1'    11.360391    3.910322    1.405865 H2    9 G3      0.2006 ****
266 N9     10.234309    4.483181   -0.200512 N*    9 G3      0.0492 ****
267 C8      9.614356    5.349859   -1.077396 CP    9 G3      0.1374 ****
268 H8      9.359157    6.349685   -0.758610 H5    9 G3      0.1640 ****
269 N7      9.389254    4.838444   -2.262252 NB    9 G3     -0.5709 ****
270 C5      9.892173    3.545966   -2.169115 CB    9 G3      0.1744 ****
271 C6      9.936912    2.504146   -3.132967 C     9 G3      0.4770 ****
272 O6      9.531467    2.510571   -4.294205 O     9 G3     -0.5597 ****
273 N1     10.537411    1.351942   -2.611595 NA    9 G3     -0.4787 ****
274 H1     10.614066    0.559601   -3.216838 H     9 G3      0.3424 ****
275 C2     11.031838    1.222142   -1.329763 CA    9 G3      0.7657 ****
276 N2     11.570053    0.033459   -1.024873 N2    9 G3     -0.9672 ****
277 H21    11.640462   -0.774328   -1.627056 H     9 G3      0.4364 ****
278 H22    11.926453   -0.072877   -0.085846 H     9 G3      0.4364 ****
279 N3     10.991034    2.199738   -0.428907 NC    9 G3     -0.6323 ****
280 C4     10.410125    3.327120   -0.919983 CB    9 G3      0.1222 ****
281 C3'    10.678247    6.375822    2.906395 CT    9 G3      0.2022 ****
282 H3'    10.538367    7.447954    3.044469 H1    9 G3      0.0615 ****
283 C2'    11.194245    6.106893    1.491360 CT    9 G3      0.0670 ****
284 H2'    11.361703    7.054263    0.978965 H1    9 G3      0.0972 ****
285 O2'    12.423691    5.379972    1.561708 OH    9 G3     -0.6139 ****
286 HO2'   12.713956    5.231370    0.658788 HO    9 G3      0.4186 ****
287 O3'    11.648181    5.875725    3.814983 OH    9 G3     -0.6541 ****
288 HO3'   12.494103    6.329170    3.794890 HO    9 G3      0.4376 ****
289 HO5'    1.866026    1.500000   -0.000001 HO   10 C5      0.4295 ****
290 O5'     1.958076    1.721055    0.929655 OH   10 C5     -0.6223 ****
291 C5'     0.788438    2.110876    1.673689 CI   10 C5      0.0558 ****
292 H5'     0.059609    1.300555    1.656698 H1   10 C5      0.0679 ****
293 H5''    0.350939    3.001862    1.223312 H1   10 C5      0.0679 ****
294 C4'     1.165852    2.413322    3.114690 CT   10 C5      0.1065 ****
295 H4'     0.391898    3.029893    3.571785 H1   10 C5      0.1174 ****
296 O4'     1.142228    1.169997    3.879664 OS   10 C5     -0.3548 ****
297 C1'     2.468203    0.737932    4.147079 CT   10 C5      0.0066 ****
298 H1'     2.623230    0.684850    5.224692 H2   10 C5      0.2029 ****
299 N1      2.591677   -0.679109    3.703402 N*   10 C5     -0.0484 ****
300 C6      2.814056   -0.989712    2.398154 C4   10 C5      0.0053 ****
301 H6      2.904093   -0.203076    1.663650 H4   10 C5      0.1958 ****
302 C5      2.926421   -2.283845    1.995422 C4   10 C5     -0.5215 ****
303 H5      3.104661   -2.514239    0.945065 HA   10 C5      0.1928 ****
304 C4      2.799912   -3.288859    3.004800 CA   10 C5      0.8185 ****
305 N4      2.898406   -4.565468    2.683913 N2   10 C5     -0.9530 ****
306 H41     2.803314   -5.244631    3.425395 H    10 C5      0.4234 ****
307 H42     3.063322   -4.838270    1.725539 H    10 C5      0.4234 ****
308 N3      2.582461   -2.976084    4.279079 NC   10 C5     -0.7584 ****
309 C2      2.473124   -1.675589    4.661648 C    10 C5      0.7538 ****
310 O2      2.270624   -1.344208    5.839264 O    10 C5     -0.6252 ****
311 C3'     2.575663    2.966923    3.331156 CT   10 C5      0.2022 ****
312 H3'     2.881940    3.535798    2.453275 H1   10 C5      0.0615 ****
313 C2'     3.424930    1.698842    3.438933 CT   10 C5      0.0670 ****
314 H2'     4.177812    1.697074    2.650729 H1   10 C5      0.0972 ****
315 O2'     4.070875    1.663901    4.714250 OH   10 C5     -0.6139 ****
316 HO2'    4.591407    0.857795    4.743237 HO   10 C5      0.4186 ****
317 O3'     2.785632    3.721367    4.515693 OS   10 C5     -0.5246 ****
318 P       4.232664    4.348687    4.839217 P    11 C       1.1662 ****
319 OP1     5.208669    3.239685    4.928261 O2   11 C      -0.7760 ****
320 OP2     4.145812    5.073250    6.126799 O2   11 C      -0.7760 ****
321 O5'     4.483164    5.312494    3.586890 OS   11 C      -0.4989 ****
322 C5'     4.118738    4.855957    2.270696 CI   11 C       0.0558 ****
323 H5'     3.050003    4.643604    2.242187 H1   11 C       0.0679 ****
324 H5''    4.675249    3.949373    2.032994 H1   11 C       0.0679 ****
325 C4'     4.443224    5.925890    1.240961 CT   11 C       0.1065 ****
326 H4'     4.506782    5.471801    0.252091 H1   11 C       0.1174 ****
327 O4'     3.315703    6.848726    1.147863 OS   11 C      -0.3548 ****
328 C1'     3.635948    8.074537    1.789135 CT   11 C       0.0066 ****
329 H1'     3.575932    8.889229    1.067488 H2   11 C       0.2029 ****
330 N1      2.550993    8.385298    2.761966 N*   11 C      -0.0484 ****
331 C6      2.527465    7.811741    3.994881 C4   11 C       0.0053 ****
332 H6      3.303736    7.118241    4.282737 H4   11 C       0.1958 ****
333 C5      1.536176    8.096854    4.881254 C4   11 C      -0.5215 ****
334 H5      1.533302    7.627764    5.865147 HA   11 C       0.1928 ****
335 C4      0.531816    9.020573    4.453579 CA   11 C       0.8185 ****
336 N4     -0.459599    9.342406    5.263466 N2   11 C      -0.9530 ****
337 H41    -1.148854    9.998167    4.924340 H    11 C       0.4234 ****
338 H42    -0.513616    8.938528    6.187623 H    11 C       0.4234 ****
339 N3      0.562621    9.576842    3.245889 NC   11 C      -0.7584 ****
340 C2      1.562710    9.278565    2.373851 C    11 C       0.7538 ****
341 O2      1.625942    9.776314    1.239898 O    11 C      -0.6252 ****
342 C3'     5.641494    6.820163    1.565501 CT   11 C       0.2022 ****
343 H3'     6.363188    6.259912    2.159956 H1   11 C       0.0615 ****
344 C2'     5.018982    7.922344    2.424905 CT   11 C       0.0670 ****
345 H2'     5.491186    7.928127    3.407295 H1   11 C       0.0972 ****
346 O2'     5.218270    9.189838    1.793523 OH   11 C      -0.6139 ****
347 HO2'    4.815823    9.852052    2.360187 HO   11 C       0.4186 ****
348 O3'     6.279938    7.449183    0.464082 OS   11 C      -0.5246 ****
349 P       7.550300    8.410673    0.696069 P    12 C3      1.1662 ****
350 OP1     7.130885    9.529326    1.569628 O2   12 C3     -0.7760 ****
351 OP2     7.995790    8.915362   -0.621971 O2   12 C3     -0.7760 ****
352 O5'     8.608336    7.430176    1.388301 OS   12 C3     -0.4989 ****
353 C5'     8.149875    6.504622    2.391676 CI   12 C3      0.0558 ****
354 H5'     7.403440    5.838764    1.958585 H1   12 C3      0.0679 ****
355 H5''    7.706455    7.056595    3.220413 H1   12 C3      0.0679 ****
356 C4'     9.316350    5.678590    2.908792 CT   12 C3      0.1065 ****
357 H4'     9.058601    5.251908    3.878126 H1   12 C3      0.1174 ****
358 O4'     9.498746    4.521848    2.036854 OS   12 C3     -0.3548 ****
359 C1'    10.641806    4.707392    1.215035 CT   12 C3      0.0066 ****
360 H1'    11.360391    3.910322    1.405865 H2   12 C3      0.2029 ****
361 N1     10.235283    4.483374   -0.200823 N*   12 C3     -0.0484 ****
362 C6      9.628253    5.464408   -0.921023 C4   12 C3      0.0053 ****
363 H6      9.433411    6.425157   -0.467814 H4   12 C3      0.1958 ****
364 C5      9.258043    5.257720   -2.213240 C4   12 C3     -0.5215 ****
365 H5      8.772541    6.055488   -2.775338 HA   12 C3      0.1928 ****
366 C4      9.537399    3.969738   -2.768183 CA   12 C3      0.8185 ****
367 N4      9.204958    3.700705   -4.016983 N2   12 C3     -0.9530 ****
368 H41     9.419193    2.779690   -4.371857 H    12 C3      0.4234 ****
369 H42     8.752419    4.402007   -4.585741 H    12 C3      0.4234 ****
370 N3     10.131484    3.016037   -2.056551 NC   12 C3     -0.7584 ****
371 C2     10.494019    3.242624   -0.765496 C    12 C3      0.7538 ****
372 O2     11.049500    2.379264   -0.070046 O    12 C3     -0.6252 ****
373 C3'    10.678247    6.375822    2.906395 CT   12 C3      0.2022 ****
374 H3'    10.538367    7.447954    3.044469 H1   12 C3      0.0615 ****
375 C2'    11.194245    6.106893    1.491360 CT   12 C3      0.0670 ****
376 H2'    11.361703    7.054263    0.978965 H1   12 C3      0.0972 ****
377 O2'    12.423691    5.379972    1.561708 OH   12 C3     -0.6139 ****
378 HO2'   12.713956    5.231370    0.658788 HO   12 C3      0.4186 ****
379 O3'    11.648181    5.875725    3.814983 OH   12 C3     -0.6541 ****
380 HO3'   12.494103    6.329170    3.794890 HO   12 C3      0.4376 ****
381 HO5'    1.866026    1.500000   -0.000001 HO   13 UN      0.4295 ****
382 O5'     1.958076    1.721055    0.929655 OH   13 UN     -0.6223 ****
383 C5'     0.788438    2.110876    1.673689 CI   13 UN      0.0558 ****
384 H5'     0.059609    1.300555    1.656698 H1   13 UN      0.0679 ****
385 H5''    0.350939    3.001862    1.223312 H1   13 UN      0.0679 ****
386 C4'     1.165852    2.413322    3.114690 CT   13 UN      0.1065 ****
387 H4'     0.391898    3.029893    3.571785 H1   13 UN      0.1174 ****
388 O4'     1.142228    1.169997    3.879664 OS   13 UN     -0.3548 ****
389 C1'     2.468203    0.737932    4.147079 CT   13 UN      0.0674 ****
390 H1'     2.623230    0.684850    5.224692 H2   13 UN      0.1824 ****
391 N1      2.632954   -0.717027    3.703400 N*   13 UN      0.0418 ****
392 C6      2.875704   -1.078951    2.404560 CS   13 UN     -0.1126 ****
393 H6      2.959033   -0.321303    1.639428 H4   13 UN      0.2188 ****
394 C5      3.067013   -2.361006    2.064952 CS   13 UN     -0.3635 ****
395 H5      3.258726   -2.626647    1.025346 HA   13 UN      0.1811 ****
396 C4      3.022940   -3.401293    3.059668 C    13 UN      0.5952 ****
397 O4      3.186163   -4.600921    2.842522 O    13 UN     -0.5761 ****
398 N3      2.773361   -2.946917    4.338595 NA   13 UN     -0.3549 ****
399 H3      2.730570   -3.698396    5.126977 H    13 UN      0.3154 ****
400 C2      2.572586   -1.635486    4.718382 C    13 UN      0.4687 ****
401 O2      2.357491   -1.330167    5.879810 O    13 UN     -0.5477 ****
402 C3'     2.575663    2.966923    3.331156 CT   13 UN      0.2022 ****
403 H3'     2.881940    3.535798    2.453275 H1   13 UN      0.0615 ****
404 C2'     3.424930    1.698842    3.438933 CT   13 UN      0.0670 ****
405 H2'     4.177812    1.697074    2.650729 H1   13 UN      0.0972 ****
406 O2'     4.070875    1.663901    4.714250 OH   13 UN     -0.6139 ****
407 HO2'    4.591407    0.857795    4.743237 HO   13 UN      0.4186 ****
408 O3'     2.785632    3.721367    4.515693 OH   13 UN     -0.6541 ****
409 HO3'    3.677545    4.057868    4.629089 HO   13 UN      0.4376 ****
410 HO5'    1.866026    1.500000   -0.000001 HO   14 AN      0.4295 ****
411 O5'     1.958076    1.721055    0.929655 OH   14 AN     -0.6223 ****
412 C5'     0.788438    2.110876    1.673689 CI   14 AN      0.0558 ****
413 H5'     0.059609    1.300555    1.656698 H1   14 AN      0.0679 ****
414 H5''    0.350939    3.001862    1.223312 H1   14 AN      0.0679 ****
415 C4'     1.165852    2.413326    3.114689 CT   14 AN      0.1065 ****
416 H4'     0.391898    3.029897    3.571783 H1   14 AN      0.1174 ****
417 O4'     1.142231    1.170002    3.879666 OS   14 AN     -0.3548 ****
418 C1'     2.468206    0.737940    4.147081 CT   14 AN      0.0394 ****
419 H1'     2.623235    0.684861    5.224694 H2   14 AN      0.2007 ****
420 N9      2.631883   -0.707510    3.706304 N*   14 AN     -0.0251 ****
421 C8      2.874744   -1.252950    2.473254 C5   14 AN      0.2006 ****
422 H8      2.981762   -0.611824    1.610754 H5   14 AN      0.1553 ****
423 N7      3.015090   -2.545282    2.486686 NB   14 AN     -0.6073 ****
424 C5      2.854438   -2.887092    3.824392 CB   14 AN      0.0515 ****
425 C6      2.890064   -4.114821    4.496265 CA   14 AN      0.7009 ****
426 N6      3.109811   -5.286601    3.884511 N2   14 AN     -0.9019 ****
427 H61     3.124377   -6.141797    4.421657 H    14 AN      0.4115 ****
428 H62     3.260876   -5.314613    2.886265 H    14 AN      0.4115 ****
429 N1      2.691907   -4.099278    5.821441 NC   14 AN     -0.7615 ****
430 C2      2.474289   -2.933294    6.423125 CQ   14 AN      0.5875 ****
431 H2      2.312233   -2.898286    7.490323 H5   14 AN      0.0473 ****
432 N3      2.418510   -1.722694    5.899928 NC   14 AN     -0.6997 ****
433 C4      2.621154   -1.767152    4.565964 CB   14 AN      0.3053 ****
434 C3'     2.575663    2.966930    3.331153 CT   14 AN      0.2022 ****
435 H3'     2.881938    3.535803    2.453270 H1   14 AN      0.0615 ****
436 C2'     3.424932    1.698850    3.438932 CT   14 AN      0.0670 ****
437 H2'     4.177814    1.697080    2.650727 H1   14 AN      0.0972 ****
438 O2'     4.070877    1.663912    4.714249 OH   14 AN     -0.6139 ****
439 HO2'    4.591411    0.857807    4.743237 HO   14 AN      0.4186 ****
440 O3'     2.785632    3.721376    4.515688 OH   14 AN     -0.6541 ****
441 HO3'    3.677544    4.057879    4.629083 HO   14 AN      0.4376 ****
442 HO5'    1.866026    1.500000   -0.000001 HO   15 GN      0.4295 ****
443 O5'     1.958076    1.721055    0.929655 OH   15 GN     -0.6223 ****
444 C5'     0.788438    2.110876    1.673689 CI   15 GN      0.0558 ****
445 H5'     0.059609    1.300555    1.656698 H1   15 GN      0.0679 ****
446 H5''    0.350939    3.001862    1.223312 H1   15 GN      0.0679 ****
447 C4'     1.165852    2.413322    3.114690 CT   15 GN      0.1065 ****
448 H4'     0.391898    3.029893    3.571785 H1   15 GN      0.1174 ****
449 O4'     1.142228    1.169997    3.879664 OS   15 GN     -0.3548 ****
450 C1'     2.468203    0.737932    4.147079 CT   15 GN      0.0191 ****
451 H1'     2.623230    0.684850    5.224692 H2   15 GN      0.2006 ****
452 N9      2.590683   -0.679099    3.703095 N*   15 GN      0.0492 ****
453 C8      2.813129   -1.180191    2.436673 CP   15 GN      0.1374 ****
454 H8      2.923923   -0.505431    1.600717 H5   15 GN      0.1640 ****
455 N7      2.866570   -2.487996    2.382915 NB   15 GN     -0.5709 ****
456 C5      2.666619   -2.884785    3.699987 CB   15 GN      0.1744 ****
457 C6      2.618174   -4.183247    4.272741 C    15 GN      0.4770 ****
458 O6      2.745116   -5.274679    3.719964 O    15 GN     -0.5597 ****
459 N1      2.392360   -4.124070    5.653142 NA   15 GN     -0.4787 ****
460 H1      2.340247   -4.991530    6.147911 H    15 GN      0.3424 ****
461 C2      2.235990   -2.964893    6.385439 CA   15 GN      0.7657 ****
462 N2      2.027970   -3.123384    7.699672 N2   15 GN     -0.9672 ****
463 H21     1.962798   -3.996108    8.203861 H    15 GN      0.4364 ****
464 H22     1.903763   -2.280230    8.241672 H    15 GN      0.4364 ****
465 N3      2.283792   -1.749405    5.847662 NC   15 GN     -0.6323 ****
466 C4      2.502700   -1.789344    4.505990 CB   15 GN      0.1222 ****
467 C3'     2.575663    2.966923    3.331156 CT   15 GN      0.2022 ****
468 H3'     2.881940    3.535798    2.453275 H1   15 GN      0.0615 ****
469 C2'     3.424930    1.698842    3.438933 CT   15 GN      0.0670 ****
470 H2'     4.177812    1.697074    2.650729 H1   15 GN      0.0972 ****
471 O2'     4.070875    1.663901    4.714250 OH   15 GN     -0.6139 ****
472 HO2'    4.591407    0.857795    4.743237 HO   15 GN      0.4186 ****
473 O3'     2.785632    3.721367    4.515693 OH   15 GN     -0.6541 ****
474 HO3'    3.677545    4.057868    4.629089 HO   15 GN      0.4376 ****
475 HO5'    1.866026    1.500000   -0.000001 HO   16 CN      0.4295 ****
476 O5'     1.958076    1.721055    0.929655 OH   16 CN     -0.6223 ****
477 C5'     0.788438    2.110876    1.673689 CI   16 CN      0.0558 ****
478 H5'     0.059609    1.300555    1.656698 H1   16 CN      0.0679 ****
479 H5''    0.350939    3.001862    1.223312 H1   16 CN      0.0679 ****
480 C4'     1.165852    2.413322    3.114690 CT   16 CN      0.1065 ****
481 H4'     0.391898    3.029893    3.571785 H1   16 CN      0.1174 ****
482 O4'     1.142228    1.169997    3.879664 OS   16 CN     -0.3548 ****
483 C1'     2.468203    0.737932    4.147079 CT   16 CN      0.0066 ****
484 H1'     2.623230    0.684850    5.224692 H2   16 CN      0.2029 ****
485 N1      2.591677   -0.679109    3.703402 N*   16 CN     -0.0484 ****
486 C6      2.814056   -0.989712    2.398154 C4   16 CN      0.0053 ****
487 H6      2.904093   -0.203076    1.663650 H4   16 CN      0.1958 ****
488 C5      2.926421   -2.283845    1.995422 C4   16 CN     -0.5215 ****
489 H5      3.104661   -2.514239    0.945065 HA   16 CN      0.1928 ****
490 C4      2.799912   -3.288859    3.004800 CA   16 CN      0.8185 ****
491 N4      2.898406   -4.565468    2.683913 N2   16 CN     -0.9530 ****
492 H41     2.803314   -5.244631    3.425395 H    16 CN      0.4234 ****
493 H42     3.063322   -4.838270    1.725539 H    16 CN      0.4234 ****
494 N3      2.582461   -2.976084    4.279079 NC   16 CN     -0.7584 ****
495 C2      2.473124   -1.675589    4.661648 C    16 CN      0.7538 ****
496 O2      2.270624   -1.344208    5.839264 O    16 CN     -0.6252 ****
497 C3'     2.575663    2.966923    3.331156 CT   16 CN      0.2022 ****
498 H3'     2.881940    3.535798    2.453275 H1   16 CN      0.0615 ****
499 C2'     3.424930    1.698842    3.438933 CT   16 CN      0.0670 ****
500 H2'     4.177812    1.697074    2.650729 H1   16 CN      0.0972 ****
501 O2'     4.070875    1.663901    4.714250 OH   16 CN     -0.6139 ****
502 HO2'    4.591407    0.857795    4.743237 HO   16 CN      0.4186 ****
503 O3'     2.785632    3.721367    4.515693 OH   16 CN     -0.6541 ****
504 HO3'    3.677545    4.057868    4.629089 HO   16 CN      0.4376 ****
505 HOP3    1.866026    1.500000   -0.000001 HO   17 OHE     0.3129 ****
506 OP3     2.030781    1.595123   -0.940962 OH   17 OHE    -0.6210 ****
@<TRIPOS>BOND
    1    60    59 1
    2    61    59 1
    3    62    59 1
    4    63    62 1
    5    64    63 1
    6    65    63 1
    7    66    63 1
    8    67    66 1
    9    68    66 1
   10    69    68 1
   11    70    69 1
   12    71    69 1
   13    72    71 1
   14    73    72 1
   15    74    72 1
   16    75    74 1
   17    76    74 1
   18    77    76 1
   19    78    76 1
   20    79    78 1
   21    80    71 1
   22    80    78 1
   23    81    80 1
   24    82    66 1
   25    83    82 1
   26    84    69 1
   27    84    82 1
   28    85    84 1
   29    86    84 1
   30    87    86 1
   31    88    82 1
   32    89    88 1
   33    30    29 1
   34    31    29 1
   35    32    29 1
   36    33    32 1
   37    34    33 1
   38    35    33 1
   39    36    33 1
   40    37    36 1
   41    38    36 1
   42    39    38 1
   43    40    39 1
   44    41    39 1
   45    42    41 1
   46    43    42 1
   47    44    42 1
   48    45    44 1
   49    46    44 1
   50    47    46 1
   51    48    46 1
   52    49    48 1
   53    50    41 1
   54    50    48 1
   55    51    50 1
   56    52    36 1
   57    53    52 1
   58    54    39 1
   59    54    52 1
   60    55    54 1
   61    56    54 1
   62    57    56 1
   63    58    52 1
   64    58    59 1
   65     2     1 1
   66     3     2 1
   67     4     3 1
   68     5     3 1
   69     6     3 1
   70     7     6 1
   71     8     6 1
   72     9     8 1
   73    10     9 1
   74    11     9 1
   75    12    11 1
   76    13    12 1
   77    14    12 1
   78    15    14 1
   79    16    14 1
   80    17    16 1
   81    18    16 1
   82    19    18 1
   83    20    11 1
   84    20    18 1
   85    21    20 1
   86    22     6 1
   87    23    22 1
   88    24     9 1
   89    24    22 1
   90    25    24 1
   91    26    24 1
   92    27    26 1
   93    28    22 1
   94    28    29 1
   95    91    90 1
   96    92    91 1
   97    93    92 1
   98    94    92 1
   99    95    92 1
  100    96    95 1
  101    97    95 1
  102    98    97 1
  103    99    98 1
  104   100    98 1
  105   101   100 1
  106   102   101 1
  107   103   101 1
  108   104   103 1
  109   105   104 1
  110   106   105 1
  111   107   106 1
  112   108   106 1
  113   109   105 1
  114   110   109 1
  115   111   110 1
  116   112   110 1
  117   113   100 1
  118   113   104 1
  119   113   112 1
  120   114    95 1
  121   115   114 1
  122   116    98 1
  123   116   114 1
  124   117   116 1
  125   118   116 1
  126   119   118 1
  127   120   114 1
  128   120   121 1
  129   122   121 1
  130   123   121 1
  131   124   121 1
  132   125   124 1
  133   126   125 1
  134   127   125 1
  135   128   125 1
  136   129   128 1
  137   130   128 1
  138   131   130 1
  139   132   131 1
  140   133   131 1
  141   134   133 1
  142   135   134 1
  143   136   134 1
  144   137   136 1
  145   138   137 1
  146   139   138 1
  147   140   139 1
  148   141   139 1
  149   142   138 1
  150   143   142 1
  151   144   143 1
  152   145   143 1
  153   146   133 1
  154   146   137 1
  155   146   145 1
  156   147   128 1
  157   148   147 1
  158   149   131 1
  159   149   147 1
  160   150   149 1
  161   151   149 1
  162   152   151 1
  163   153   147 1
  164   153   154 1
  165   155   154 1
  166   156   154 1
  167   157   154 1
  168   158   157 1
  169   159   158 1
  170   160   158 1
  171   161   158 1
  172   162   161 1
  173   163   161 1
  174   164   163 1
  175   165   164 1
  176   166   164 1
  177   167   166 1
  178   168   167 1
  179   169   167 1
  180   170   169 1
  181   171   170 1
  182   172   171 1
  183   173   172 1
  184   174   172 1
  185   175   171 1
  186   176   175 1
  187   177   176 1
  188   178   176 1
  189   179   166 1
  190   179   170 1
  191   179   178 1
  192   180   161 1
  193   181   180 1
  194   182   164 1
  195   182   180 1
  196   183   182 1
  197   184   182 1
  198   185   184 1
  199   186   180 1
  200   187   186 1
  201   189   188 1
  202   190   189 1
  203   191   190 1
  204   192   190 1
  205   193   190 1
  206   194   193 1
  207   195   193 1
  208   196   195 1
  209   197   196 1
  210   198   196 1
  211   199   198 1
  212   200   199 1
  213   201   199 1
  214   202   201 1
  215   203   202 1
  216   204   203 1
  217   205   203 1
  218   206   205 1
  219   207   205 1
  220   208   207 1
  221   209   208 1
  222   210   208 1
  223   211   207 1
  224   212   198 1
  225   212   202 1
  226   212   211 1
  227   213   193 1
  228   214   213 1
  229   215   196 1
  230   215   213 1
  231   216   215 1
  232   217   215 1
  233   218   217 1
  234   219   213 1
  235   219   220 1
  236   221   220 1
  237   222   220 1
  238   223   220 1
  239   224   223 1
  240   225   224 1
  241   226   224 1
  242   227   224 1
  243   228   227 1
  244   229   227 1
  245   230   229 1
  246   231   230 1
  247   232   230 1
  248   233   232 1
  249   234   233 1
  250   235   233 1
  251   236   235 1
  252   237   236 1
  253   238   237 1
  254   239   237 1
  255   240   239 1
  256   241   239 1
  257   242   241 1
  258   243   242 1
  259   244   242 1
  260   245   241 1
  261   246   232 1
  262   246   236 1
  263   246   245 1
  264   247   227 1
  265   248   247 1
  266   249   230 1
  267   249   247 1
  268   250   249 1
  269   251   249 1
  270   252   251 1
  271   253   247 1
  272   253   254 1
  273   255   254 1
  274   256   254 1
  275   257   254 1
  276   258   257 1
  277   259   258 1
  278   260   258 1
  279   261   258 1
  280   262   261 1
  281   263   261 1
  282   264   263 1
  283   265   264 1
  284   266   264 1
  285   267   266 1
  286   268   267 1
  287   269   267 1
  288   270   269 1
  289   271   270 1
  290   272   271 1
  291   273   271 1
  292   274   273 1
  293   275   273 1
  294   276   275 1
  295   277   276 1
  296   278   276 1
  297   279   275 1
  298   280   266 1
  299   280   270 1
  300   280   279 1
  301   281   261 1
  302   282   281 1
  303   283   264 1
  304   283   281 1
  305   284   283 1
  306   285   283 1
  307   286   285 1
  308   287   281 1
  309   288   287 1
  310   290   289 1
  311   291   290 1
  312   292   291 1
  313   293   291 1
  314   294   291 1
  315   295   294 1
  316   296   294 1
  317   297   296 1
  318   298   297 1
  319   299   297 1
  320   300   299 1
  321   301   300 1
  322   302   300 1
  323   303   302 1
  324   304   302 1
  325   305   304 1
  326   306   305 1
  327   307   305 1
  328   308   304 1
  329   309   299 1
  330   309   308 1
  331   310   309 1
  332   311   294 1
  333   312   311 1
  334   313   297 1
  335   313   311 1
  336   314   313 1
  337   315   313 1
  338   316   315 1
  339   317   311 1
  340   317   318 1
  341   319   318 1
  342   320   318 1
  343   321   318 1
  344   322   321 1
  345   323   322 1
  346   324   322 1
  347   325   322 1
  348   326   325 1
  349   327   325 1
  350   328   327 1
  351   329   328 1
  352   330   328 1
  353   331   330 1
  354   332   331 1
  355   333   331 1
  356   334   333 1
  357   335   333 1
  358   336   335 1
  359   337   336 1
  360   338   336 1
  361   339   335 1
  362   340   330 1
  363   340   339 1
  364   341   340 1
  365   342   325 1
  366   343   342 1
  367   344   328 1
  368   344   342 1
  369   345   344 1
  370   346   344 1
  371   347   346 1
  372   348   342 1
  373   348   349 1
  374   350   349 1
  375   351   349 1
  376   352   349 1
  377   353   352 1
  378   354   353 1
  379   355   353 1
  380   356   353 1
  381   357   356 1
  382   358   356 1
  383   359   358 1
  384   360   359 1
  385   361   359 1
  386   362   361 1
  387   363   362 1
  388   364   362 1
  389   365   364 1
  390   366   364 1
  391   367   366 1
  392   368   367 1
  393   369   367 1
  394   370   366 1
  395   371   361 1
  396   371   370 1
  397   372   371 1
  398   373   356 1
  399   374   373 1
  400   375   359 1
  401   375   373 1
  402   376   375 1
  403   377   375 1
  404   378   377 1
  405   379   373 1
  406   380   379 1
  407   408   409 1
  408   406   407 1
  409   404   405 1
  410   404   406 1
  411   402   403 1
  412   402   404 1
  413   402   408 1
  414   400   401 1
  415   398   399 1
  416   398   400 1
  417   396   397 1
  418   396   398 1
  419   394   395 1
  420   394   396 1
  421   392   393 1
  422   392   394 1
  423   391   392 1
  424   391   400 1
  425   389   390 1
  426   389   391 1
  427   389   404 1
  428   388   389 1
  429   386   387 1
  430   386   388 1
  431   386   402 1
  432   383   384 1
  433   383   385 1
  434   383   386 1
  435   382   383 1
  436   381   382 1
  437   440   441 1
  438   438   439 1
  439   436   437 1
  440   436   438 1
  441   434   435 1
  442   434   436 1
  443   434   440 1
  444   432   433 1
  445   430   431 1
  446   430   432 1
  447   429   430 1
  448   426   427 1
  449   426   428 1
  450   425   426 1
  451   425   429 1
  452   424   425 1
  453   424   433 1
  454   423   424 1
  455   421   422 1
  456   421   423 1
  457   420   421 1
  458   420   433 1
  459   418   419 1
  460   418   420 1
  461   418   436 1
  462   417   418 1
  463   415   416 1
  464   415   417 1
  465   415   434 1
  466   412   413 1
  467   412   414 1
  468   412   415 1
  469   411   412 1
  470   410   411 1
  471   473   474 1
  472   471   472 1
  473   469   470 1
  474   469   471 1
  475   467   468 1
  476   467   469 1
  477   467   473 1
  478   465   466 1
  479   462   463 1
  480   462   464 1
  481   461   462 1
  482   461   465 1
  483   459   460 1
  484   459   461 1
  485   457   458 1
  486   457   459 1
  487   456   457 1
  488   456   466 1
  489   455   456 1
  490   453   454 1
  491   453   455 1
  492   452   453 1
  493   452   466 1
  494   450   451 1
  495   450   452 1
  496   450   469 1
  497   449   450 1
  498   447   448 1
  499   447   449 1
  500   447   467 1
  501   444   445 1
  502   444   446 1
  503   444   447 1
  504   443   444 1
  505   442   443 1
  506   503   504 1
  507   501   502 1
  508   499   500 1
  509   499   501 1
  510   497   498 1
  511   497   499 1
  512   497   503 1
  513   495   496 1
  514   494   495 1
  515   491   492 1
  516   491   493 1
  517   490   491 1
  518   490   494 1
  519   488   489 1
  520   488   490 1
  521   486   487 1
  522   486   488 1
  523   485   486 1
  524   485   495 1
  525   483   484 1
  526   483   485 1
  527   483   499 1
  528   482   483 1
  529   480   481 1
  530   480   482 1
  531   480   497 1
  532   477   478 1
  533   477   479 1
  534   477   480 1
  535   476   477 1
  536   475   476 1
  537   505   506 1
@<TRIPOS>SUBSTRUCTURE
      1   U5              1 ****               0 ****  **** 
      2    U             29 ****               0 ****  **** 
      3   U3             59 ****               0 ****  **** 
      4   A5             90 ****               0 ****  **** 
      5    A            121 ****               0 ****  **** 
      6   A3            154 ****               0 ****  **** 
      7   G5            188 ****               0 ****  **** 
      8    G            220 ****               0 ****  **** 
      9   G3            254 ****               0 ****  **** 
     10   C5            289 ****               0 ****  **** 
     11    C            318 ****               0 ****  **** 
     12   C3            349 ****               0 ****  **** 
     13   UN            381 ****               0 ****  **** 
     14   AN            410 ****               0 ****  **** 
     15   GN            442 ****               0 ****  **** 
     16   CN            475 ****               0 ****  **** 
     17  OHE            505 ****               0 ****  **** 
