@<TRIPOS>MOLECULE
SPC
    3     3     1     0     1 
SMALL
USER_CHARGES
@<TRIPOS>ATOM
  1 O       0.000000    0.000000    0.000000 OW    1 WAT    -0.8476 ****
  2 H1      1.000000    0.000000    0.000000 HW    1 WAT     0.4238 ****
  3 H2     -0.333314    0.942816    0.000000 HW    1 WAT     0.4238 ****
@<TRIPOS>BOND
    1     1     2 1
    2     1     3 1
    3     2     3 1
@<TRIPOS>SUBSTRUCTURE
      1  WAT              1 ****               0 ****  **** 
