@<TRIPOS>MOLECULE
TP3
    3     3     1     0     1 
SMALL
USER_CHARGES
@<TRIPOS>ATOM
  1 O       0.000000    0.000000    0.000000 OW    1 WAT    -0.8340 ****
  2 H1      0.957200    0.000000    0.000000 HW    1 WAT     0.4170 ****
  3 H2     -0.239988    0.926627    0.000000 HW    1 WAT     0.4170 ****
@<TRIPOS>BOND
    1     1     2 1
    2     1     3 1
    3     2     3 1
@<TRIPOS>SUBSTRUCTURE
      1  WAT              1 ****               0 ****  **** 
