@<TRIPOS>MOLECULE
temp
 43 44 1 0 1
SMALL
USER_CHARGES
@<TRIPOS>ATOM
     1   C1   -0.625    1.345    1.499   c3     1     temp   0.030000
     2   O2   -0.473   -0.062    1.700   os     1     temp  -0.350000
     3   C3    0.335   -0.720    0.843    c     1     temp   0.530000
     4   O4    0.895   -0.115   -0.051    o     1     temp  -0.480000
     5   C5    0.530   -2.114    0.984   ce     1     temp  -0.220000
     6   C6    1.400   -2.566    1.903   c2     1     temp   0.180000
     7   C7    2.144   -1.584    2.772   c3     1     temp  -0.130000
     8   N8    1.619   -3.908    2.061   nh     1     temp  -0.630000
     9   C9    1.253   -4.787    1.079   c2     1     temp   0.250000
    10  C10    1.838   -6.175    1.066   c3     1     temp  -0.120000
    11  C11    0.376   -4.427    0.125   ce     1     temp  -0.270000
    12  C12    0.026   -5.359   -0.879    c     1     temp   0.520000
    13  O13    0.516   -6.473   -0.874    o     1     temp  -0.520000
    14  O14   -0.853   -5.013   -1.844   os     1     temp  -0.360000
    15  C15   -1.161   -6.004   -2.826   c3     1     temp   0.040000
    16  C16   -0.243   -3.057    0.107   c3     1     temp   0.060000
    17  C17   -1.666   -3.149    0.595   ca     1     temp  -0.010000
    18  C18   -1.942   -3.739    1.814   ca     1     temp  -0.100000
    19  C19   -3.247   -3.824    2.262   ca     1     temp  -0.070000
    20  C20   -4.277   -3.319    1.490   ca     1     temp  -0.110000
    21  C21   -4.001   -2.728    0.271   ca     1     temp  -0.060000
    22  C22   -2.696   -2.639   -0.174   ca     1     temp  -0.020000
    23  N23   -2.400   -2.006   -1.480   no     1     temp   0.030000
    24  O24   -1.431   -1.278   -1.598    o     1     temp  -0.150000
    25  O25   -3.127   -2.213   -2.435    o     1     temp  -0.150000
    26  H26   -1.039    1.527    0.508   h1     1     temp   0.060000
    27  H27   -1.298    1.749    2.255   h1     1     temp   0.100000
    28  H28    0.347    1.830    1.582   h1     1     temp   0.060000
    29  H29    1.527   -1.319    3.630   hc     1     temp   0.100000
    30  H30    3.073   -2.036    3.117   hc     1     temp   0.090000
    31  H31    2.368   -0.687    2.195   hc     1     temp   0.090000
    32  H32    2.036   -4.237    2.873   hn     1     temp   0.420000
    33  H33    2.522   -6.288    1.907   hc     1     temp   0.070000
    34  H34    1.036   -6.908    1.149   hc     1     temp   0.100000
    35  H35    2.379   -6.333    0.133   hc     1     temp   0.110000
    36  H36   -1.877   -5.598   -3.540   h1     1     temp   0.100000
    37  H37   -0.249   -6.293   -3.350   h1     1     temp   0.060000
    38  H38   -1.591   -6.878   -2.338   h1     1     temp   0.060000
    39  H39   -0.239   -2.674   -0.914   hc     1     temp   0.110000
    40  H40   -1.137   -4.134    2.417   ha     1     temp   0.140000
    41  H41   -3.462   -4.286    3.214   ha     1     temp   0.140000
    42  H42   -5.296   -3.386    1.840   ha     1     temp   0.150000
    43  H43   -4.805   -2.333   -0.332   ha     1     temp   0.150000
@<TRIPOS>BOND
     1      1      2 1
     2      1     26 1
     3      1     27 1
     4      1     28 1
     5      2      3 1
     6      3      4 1
     7      3      5 1
     8      5      6 1
     9      5     16 1
    10      6      7 1
    11      6      8 1
    12      7     29 1
    13      7     30 1
    14      7     31 1
    15      8      9 1
    16      8     32 1
    17      9     10 1
    18      9     11 1
    19     10     33 1
    20     10     34 1
    21     10     35 1
    22     11     12 1
    23     11     16 1
    24     12     13 1
    25     12     14 1
    26     14     15 1
    27     15     36 1
    28     15     37 1
    29     15     38 1
    30     16     17 1
    31     16     39 1
    32     17     18 1
    33     17     22 1
    34     18     19 1
    35     18     40 1
    36     19     20 1
    37     19     41 1
    38     20     21 1
    39     20     42 1
    40     21     22 1
    41     21     43 1
    42     22     23 1
    43     23     24 1
    44     23     25 1
@<TRIPOS>SUBSTRUCTURE
    1     temp      1 ****               0 ****  **** 
