@<TRIPOS>MOLECULE
WAT
3 3 1 0 0
SMALL
USER_CHARGES

@<TRIPOS>ATOM
      1 OW           0.0000    0.3879    0.0000 OW         1     WAT    -0.834
      2 HW1         -0.7408   -0.1940    0.0000 HW         1     WAT    0.417
      3 HW2          0.7408   -0.1940    0.0000 HW         1     WAT    0.417

@<TRIPOS>BOND
     1     1     2     1
     2     1     3     1
     3     2     3     1

