@<TRIPOS>MOLECULE
ions
7 0 1 0 0
SMALL
USER_CHARGES
@<TRIPOS>ATOM
1 NA 0.0 0.0 0.0 SOD 1 NA 1
2 MG2 0.0 0.0 0.0 MG  2 MG 2
3 K  0.0 0.0 0.0 POT 3 K  1
4 CS 0.0 0.0 0.0 CES 4 CS 1
5 CA2 0.0 0.0 0.0 CAL 5 CA2 2
6 CL 0.0 0.0 0.0 CLA 6 CL -1
7 ZN2 0.0 0.0 0.0 ZN 7 ZN2 2

@<TRIPOS>BOND


